
---------- Begin Simulation Statistics ----------
simSeconds                                   0.014484                       # Number of seconds simulated (Second)
simTicks                                  14483775250                       # Number of ticks simulated (Tick)
finalTick                                 14483775250                       # Number of ticks from beginning of simulation (restored from checkpoints and never reset) (Tick)
simFreq                                  1000000000000                       # The number of ticks per simulated second ((Tick/Second))
hostSeconds                                    489.97                       # Real time elapsed on the host (Second)
hostTickRate                                 29560319                       # The number of ticks simulated per host second (ticks/s) ((Tick/Second))
hostMemory                                    3122076                       # Number of bytes of host memory used (Byte)
simInsts                                    333871388                       # Number of instructions simulated (Count)
simOps                                      583614367                       # Number of ops (including micro ops) simulated (Count)
hostInstRate                                   681407                       # Simulator instruction rate (inst/s) ((Count/Second))
hostOpRate                                    1191114                       # Simulator op (including micro ops) rate (op/s) ((Count/Second))
system.clk_domain.clock                          1000                       # Clock period in ticks (Tick)
system.clk_domain.voltage_domain.voltage            1                       # Voltage in Volts (Volt)
system.cpus0.numCycles                       57935102                       # Number of cpu cycles simulated (Cycle)
system.cpus0.cpi                             0.346711                       # CPI: cycles per instruction (core level) ((Cycle/Count))
system.cpus0.ipc                             2.884244                       # IPC: instructions per cycle (core level) ((Count/Cycle))
system.cpus0.numWorkItemsStarted                    0                       # Number of work items this cpu started (Count)
system.cpus0.numWorkItemsCompleted                  0                       # Number of work items this cpu completed (Count)
system.cpus0.instsAdded                     308321993                       # Number of instructions added to the IQ (excludes non-spec) (Count)
system.cpus0.nonSpecInstsAdded                  15139                       # Number of non-speculative instructions added to the IQ (Count)
system.cpus0.instsIssued                    301868903                       # Number of instructions issued (Count)
system.cpus0.squashedInstsIssued               459863                       # Number of squashed instructions issued (Count)
system.cpus0.squashedInstsExamined           16249039                       # Number of squashed instructions iterated over during squash; mainly for profiling (Count)
system.cpus0.squashedOperandsExamined        33408243                       # Number of squashed operands that are examined and possibly removed from graph (Count)
system.cpus0.squashedNonSpecRemoved              4467                       # Number of squashed non-spec instructions that were removed (Count)
system.cpus0.numIssuedDist::samples          57614876                       # Number of insts issued each cycle (Count)
system.cpus0.numIssuedDist::mean             5.239426                       # Number of insts issued each cycle (Count)
system.cpus0.numIssuedDist::stdev            2.592456                       # Number of insts issued each cycle (Count)
system.cpus0.numIssuedDist::underflows              0      0.00%      0.00% # Number of insts issued each cycle (Count)
system.cpus0.numIssuedDist::0                 7790804     13.52%     13.52% # Number of insts issued each cycle (Count)
system.cpus0.numIssuedDist::1                 1260850      2.19%     15.71% # Number of insts issued each cycle (Count)
system.cpus0.numIssuedDist::2                  822174      1.43%     17.14% # Number of insts issued each cycle (Count)
system.cpus0.numIssuedDist::3                 1387181      2.41%     19.55% # Number of insts issued each cycle (Count)
system.cpus0.numIssuedDist::4                 4547938      7.89%     27.44% # Number of insts issued each cycle (Count)
system.cpus0.numIssuedDist::5                 7962515     13.82%     41.26% # Number of insts issued each cycle (Count)
system.cpus0.numIssuedDist::6                11619546     20.17%     61.43% # Number of insts issued each cycle (Count)
system.cpus0.numIssuedDist::7                10710385     18.59%     80.02% # Number of insts issued each cycle (Count)
system.cpus0.numIssuedDist::8                11513483     19.98%    100.00% # Number of insts issued each cycle (Count)
system.cpus0.numIssuedDist::overflows               0      0.00%    100.00% # Number of insts issued each cycle (Count)
system.cpus0.numIssuedDist::min_value               0                       # Number of insts issued each cycle (Count)
system.cpus0.numIssuedDist::max_value               8                       # Number of insts issued each cycle (Count)
system.cpus0.numIssuedDist::total            57614876                       # Number of insts issued each cycle (Count)
system.cpus0.statFuBusy::No_OpClass                 0      0.00%      0.00% # attempts to use FU when none available (Count)
system.cpus0.statFuBusy::IntAlu               4042699     76.35%     76.35% # attempts to use FU when none available (Count)
system.cpus0.statFuBusy::IntMult                    0      0.00%     76.35% # attempts to use FU when none available (Count)
system.cpus0.statFuBusy::IntDiv                     0      0.00%     76.35% # attempts to use FU when none available (Count)
system.cpus0.statFuBusy::FloatAdd                   0      0.00%     76.35% # attempts to use FU when none available (Count)
system.cpus0.statFuBusy::FloatCmp                   0      0.00%     76.35% # attempts to use FU when none available (Count)
system.cpus0.statFuBusy::FloatCvt                   0      0.00%     76.35% # attempts to use FU when none available (Count)
system.cpus0.statFuBusy::FloatMult                  0      0.00%     76.35% # attempts to use FU when none available (Count)
system.cpus0.statFuBusy::FloatMultAcc               0      0.00%     76.35% # attempts to use FU when none available (Count)
system.cpus0.statFuBusy::FloatDiv                   0      0.00%     76.35% # attempts to use FU when none available (Count)
system.cpus0.statFuBusy::FloatMisc                  0      0.00%     76.35% # attempts to use FU when none available (Count)
system.cpus0.statFuBusy::FloatSqrt                  0      0.00%     76.35% # attempts to use FU when none available (Count)
system.cpus0.statFuBusy::SimdAdd                    6      0.00%     76.35% # attempts to use FU when none available (Count)
system.cpus0.statFuBusy::SimdAddAcc                 0      0.00%     76.35% # attempts to use FU when none available (Count)
system.cpus0.statFuBusy::SimdAlu                  146      0.00%     76.35% # attempts to use FU when none available (Count)
system.cpus0.statFuBusy::SimdCmp                    0      0.00%     76.35% # attempts to use FU when none available (Count)
system.cpus0.statFuBusy::SimdCvt                    5      0.00%     76.35% # attempts to use FU when none available (Count)
system.cpus0.statFuBusy::SimdMisc                 101      0.00%     76.36% # attempts to use FU when none available (Count)
system.cpus0.statFuBusy::SimdMult                   0      0.00%     76.36% # attempts to use FU when none available (Count)
system.cpus0.statFuBusy::SimdMultAcc                0      0.00%     76.36% # attempts to use FU when none available (Count)
system.cpus0.statFuBusy::SimdMatMultAcc             0      0.00%     76.36% # attempts to use FU when none available (Count)
system.cpus0.statFuBusy::SimdShift                  8      0.00%     76.36% # attempts to use FU when none available (Count)
system.cpus0.statFuBusy::SimdShiftAcc               0      0.00%     76.36% # attempts to use FU when none available (Count)
system.cpus0.statFuBusy::SimdDiv                    0      0.00%     76.36% # attempts to use FU when none available (Count)
system.cpus0.statFuBusy::SimdSqrt                   0      0.00%     76.36% # attempts to use FU when none available (Count)
system.cpus0.statFuBusy::SimdFloatAdd           71208      1.34%     77.70% # attempts to use FU when none available (Count)
system.cpus0.statFuBusy::SimdFloatAlu               0      0.00%     77.70% # attempts to use FU when none available (Count)
system.cpus0.statFuBusy::SimdFloatCmp               0      0.00%     77.70% # attempts to use FU when none available (Count)
system.cpus0.statFuBusy::SimdFloatCvt               0      0.00%     77.70% # attempts to use FU when none available (Count)
system.cpus0.statFuBusy::SimdFloatDiv               0      0.00%     77.70% # attempts to use FU when none available (Count)
system.cpus0.statFuBusy::SimdFloatMisc              0      0.00%     77.70% # attempts to use FU when none available (Count)
system.cpus0.statFuBusy::SimdFloatMult         702086     13.26%     90.96% # attempts to use FU when none available (Count)
system.cpus0.statFuBusy::SimdFloatMultAcc            0      0.00%     90.96% # attempts to use FU when none available (Count)
system.cpus0.statFuBusy::SimdFloatMatMultAcc            0      0.00%     90.96% # attempts to use FU when none available (Count)
system.cpus0.statFuBusy::SimdFloatSqrt              0      0.00%     90.96% # attempts to use FU when none available (Count)
system.cpus0.statFuBusy::SimdReduceAdd              0      0.00%     90.96% # attempts to use FU when none available (Count)
system.cpus0.statFuBusy::SimdReduceAlu              0      0.00%     90.96% # attempts to use FU when none available (Count)
system.cpus0.statFuBusy::SimdReduceCmp              0      0.00%     90.96% # attempts to use FU when none available (Count)
system.cpus0.statFuBusy::SimdFloatReduceAdd            0      0.00%     90.96% # attempts to use FU when none available (Count)
system.cpus0.statFuBusy::SimdFloatReduceCmp            0      0.00%     90.96% # attempts to use FU when none available (Count)
system.cpus0.statFuBusy::SimdAes                    0      0.00%     90.96% # attempts to use FU when none available (Count)
system.cpus0.statFuBusy::SimdAesMix                 0      0.00%     90.96% # attempts to use FU when none available (Count)
system.cpus0.statFuBusy::SimdSha1Hash               0      0.00%     90.96% # attempts to use FU when none available (Count)
system.cpus0.statFuBusy::SimdSha1Hash2              0      0.00%     90.96% # attempts to use FU when none available (Count)
system.cpus0.statFuBusy::SimdSha256Hash             0      0.00%     90.96% # attempts to use FU when none available (Count)
system.cpus0.statFuBusy::SimdSha256Hash2            0      0.00%     90.96% # attempts to use FU when none available (Count)
system.cpus0.statFuBusy::SimdShaSigma2              0      0.00%     90.96% # attempts to use FU when none available (Count)
system.cpus0.statFuBusy::SimdShaSigma3              0      0.00%     90.96% # attempts to use FU when none available (Count)
system.cpus0.statFuBusy::SimdSha3                   0      0.00%     90.96% # attempts to use FU when none available (Count)
system.cpus0.statFuBusy::SimdSm4e                   0      0.00%     90.96% # attempts to use FU when none available (Count)
system.cpus0.statFuBusy::SimdCrc                    0      0.00%     90.96% # attempts to use FU when none available (Count)
system.cpus0.statFuBusy::SimdPredAlu                0      0.00%     90.96% # attempts to use FU when none available (Count)
system.cpus0.statFuBusy::SimdDotProd                0      0.00%     90.96% # attempts to use FU when none available (Count)
system.cpus0.statFuBusy::Matrix                     0      0.00%     90.96% # attempts to use FU when none available (Count)
system.cpus0.statFuBusy::MatrixMov                  0      0.00%     90.96% # attempts to use FU when none available (Count)
system.cpus0.statFuBusy::MatrixOP                   0      0.00%     90.96% # attempts to use FU when none available (Count)
system.cpus0.statFuBusy::MemRead                55296      1.04%     92.00% # attempts to use FU when none available (Count)
system.cpus0.statFuBusy::MemWrite                4868      0.09%     92.10% # attempts to use FU when none available (Count)
system.cpus0.statFuBusy::FloatMemRead          414713      7.83%     99.93% # attempts to use FU when none available (Count)
system.cpus0.statFuBusy::FloatMemWrite           3747      0.07%    100.00% # attempts to use FU when none available (Count)
system.cpus0.statFuBusy::InstPrefetch               0      0.00%    100.00% # attempts to use FU when none available (Count)
system.cpus0.statFuBusy::SimdUnitStrideLoad            0      0.00%    100.00% # attempts to use FU when none available (Count)
system.cpus0.statFuBusy::SimdUnitStrideStore            0      0.00%    100.00% # attempts to use FU when none available (Count)
system.cpus0.statFuBusy::SimdUnitStrideMaskLoad            0      0.00%    100.00% # attempts to use FU when none available (Count)
system.cpus0.statFuBusy::SimdUnitStrideMaskStore            0      0.00%    100.00% # attempts to use FU when none available (Count)
system.cpus0.statFuBusy::SimdStridedLoad            0      0.00%    100.00% # attempts to use FU when none available (Count)
system.cpus0.statFuBusy::SimdStridedStore            0      0.00%    100.00% # attempts to use FU when none available (Count)
system.cpus0.statFuBusy::SimdIndexedLoad            0      0.00%    100.00% # attempts to use FU when none available (Count)
system.cpus0.statFuBusy::SimdIndexedStore            0      0.00%    100.00% # attempts to use FU when none available (Count)
system.cpus0.statFuBusy::SimdWholeRegisterLoad            0      0.00%    100.00% # attempts to use FU when none available (Count)
system.cpus0.statFuBusy::SimdWholeRegisterStore            0      0.00%    100.00% # attempts to use FU when none available (Count)
system.cpus0.statFuBusy::SimdUnitStrideFaultOnlyFirstLoad            0      0.00%    100.00% # attempts to use FU when none available (Count)
system.cpus0.statFuBusy::SimdUnitStrideSegmentedLoad            0      0.00%    100.00% # attempts to use FU when none available (Count)
system.cpus0.statFuBusy::SimdUnitStrideSegmentedStore            0      0.00%    100.00% # attempts to use FU when none available (Count)
system.cpus0.statFuBusy::SimdUnitStrideSegmentedFaultOnlyFirstLoad            0      0.00%    100.00% # attempts to use FU when none available (Count)
system.cpus0.statFuBusy::SimdStrideSegmentedLoad            0      0.00%    100.00% # attempts to use FU when none available (Count)
system.cpus0.statFuBusy::SimdStrideSegmentedStore            0      0.00%    100.00% # attempts to use FU when none available (Count)
system.cpus0.statFuBusy::SimdExt                    0      0.00%    100.00% # attempts to use FU when none available (Count)
system.cpus0.statFuBusy::SimdFloatExt               0      0.00%    100.00% # attempts to use FU when none available (Count)
system.cpus0.statFuBusy::SimdConfig                 0      0.00%    100.00% # attempts to use FU when none available (Count)
system.cpus0.statFuBusy::SimdBf16Add                0      0.00%    100.00% # attempts to use FU when none available (Count)
system.cpus0.statFuBusy::SimdBf16Cmp                0      0.00%    100.00% # attempts to use FU when none available (Count)
system.cpus0.statFuBusy::SimdBf16Cvt                0      0.00%    100.00% # attempts to use FU when none available (Count)
system.cpus0.statFuBusy::SimdBf16DotProd            0      0.00%    100.00% # attempts to use FU when none available (Count)
system.cpus0.statFuBusy::SimdBf16MatMultAcc            0      0.00%    100.00% # attempts to use FU when none available (Count)
system.cpus0.statFuBusy::SimdBf16Mult               0      0.00%    100.00% # attempts to use FU when none available (Count)
system.cpus0.statFuBusy::SimdBf16MultAcc            0      0.00%    100.00% # attempts to use FU when none available (Count)
system.cpus0.statFuBusy::Bf16Cvt                    0      0.00%    100.00% # attempts to use FU when none available (Count)
system.cpus0.statFuBusy::System                     0      0.00%    100.00% # attempts to use FU when none available (Count)
system.cpus0.issuedInstType_0::No_OpClass       705115      0.23%      0.23% # Number of instructions issued per FU type, per thread (Count)
system.cpus0.issuedInstType_0::IntAlu       185758300     61.54%     61.77% # Number of instructions issued per FU type, per thread (Count)
system.cpus0.issuedInstType_0::IntMult          20160      0.01%     61.78% # Number of instructions issued per FU type, per thread (Count)
system.cpus0.issuedInstType_0::IntDiv           28574      0.01%     61.79% # Number of instructions issued per FU type, per thread (Count)
system.cpus0.issuedInstType_0::FloatAdd      17786017      5.89%     67.68% # Number of instructions issued per FU type, per thread (Count)
system.cpus0.issuedInstType_0::FloatCmp             0      0.00%     67.68% # Number of instructions issued per FU type, per thread (Count)
system.cpus0.issuedInstType_0::FloatCvt             0      0.00%     67.68% # Number of instructions issued per FU type, per thread (Count)
system.cpus0.issuedInstType_0::FloatMult            0      0.00%     67.68% # Number of instructions issued per FU type, per thread (Count)
system.cpus0.issuedInstType_0::FloatMultAcc            0      0.00%     67.68% # Number of instructions issued per FU type, per thread (Count)
system.cpus0.issuedInstType_0::FloatDiv             0      0.00%     67.68% # Number of instructions issued per FU type, per thread (Count)
system.cpus0.issuedInstType_0::FloatMisc            0      0.00%     67.68% # Number of instructions issued per FU type, per thread (Count)
system.cpus0.issuedInstType_0::FloatSqrt            0      0.00%     67.68% # Number of instructions issued per FU type, per thread (Count)
system.cpus0.issuedInstType_0::SimdAdd          41269      0.01%     67.69% # Number of instructions issued per FU type, per thread (Count)
system.cpus0.issuedInstType_0::SimdAddAcc            0      0.00%     67.69% # Number of instructions issued per FU type, per thread (Count)
system.cpus0.issuedInstType_0::SimdAlu         701981      0.23%     67.92% # Number of instructions issued per FU type, per thread (Count)
system.cpus0.issuedInstType_0::SimdCmp             14      0.00%     67.92% # Number of instructions issued per FU type, per thread (Count)
system.cpus0.issuedInstType_0::SimdCvt           1787      0.00%     67.92% # Number of instructions issued per FU type, per thread (Count)
system.cpus0.issuedInstType_0::SimdMisc        103845      0.03%     67.96% # Number of instructions issued per FU type, per thread (Count)
system.cpus0.issuedInstType_0::SimdMult             0      0.00%     67.96% # Number of instructions issued per FU type, per thread (Count)
system.cpus0.issuedInstType_0::SimdMultAcc            0      0.00%     67.96% # Number of instructions issued per FU type, per thread (Count)
system.cpus0.issuedInstType_0::SimdMatMultAcc            0      0.00%     67.96% # Number of instructions issued per FU type, per thread (Count)
system.cpus0.issuedInstType_0::SimdShift         1188      0.00%     67.96% # Number of instructions issued per FU type, per thread (Count)
system.cpus0.issuedInstType_0::SimdShiftAcc            0      0.00%     67.96% # Number of instructions issued per FU type, per thread (Count)
system.cpus0.issuedInstType_0::SimdDiv              0      0.00%     67.96% # Number of instructions issued per FU type, per thread (Count)
system.cpus0.issuedInstType_0::SimdSqrt             0      0.00%     67.96% # Number of instructions issued per FU type, per thread (Count)
system.cpus0.issuedInstType_0::SimdFloatAdd     17798941      5.90%     73.86% # Number of instructions issued per FU type, per thread (Count)
system.cpus0.issuedInstType_0::SimdFloatAlu            0      0.00%     73.86% # Number of instructions issued per FU type, per thread (Count)
system.cpus0.issuedInstType_0::SimdFloatCmp            0      0.00%     73.86% # Number of instructions issued per FU type, per thread (Count)
system.cpus0.issuedInstType_0::SimdFloatCvt        55314      0.02%     73.87% # Number of instructions issued per FU type, per thread (Count)
system.cpus0.issuedInstType_0::SimdFloatDiv          850      0.00%     73.87% # Number of instructions issued per FU type, per thread (Count)
system.cpus0.issuedInstType_0::SimdFloatMisc            0      0.00%     73.87% # Number of instructions issued per FU type, per thread (Count)
system.cpus0.issuedInstType_0::SimdFloatMult     17835690      5.91%     79.78% # Number of instructions issued per FU type, per thread (Count)
system.cpus0.issuedInstType_0::SimdFloatMultAcc            0      0.00%     79.78% # Number of instructions issued per FU type, per thread (Count)
system.cpus0.issuedInstType_0::SimdFloatMatMultAcc            0      0.00%     79.78% # Number of instructions issued per FU type, per thread (Count)
system.cpus0.issuedInstType_0::SimdFloatSqrt           39      0.00%     79.78% # Number of instructions issued per FU type, per thread (Count)
system.cpus0.issuedInstType_0::SimdReduceAdd            0      0.00%     79.78% # Number of instructions issued per FU type, per thread (Count)
system.cpus0.issuedInstType_0::SimdReduceAlu            0      0.00%     79.78% # Number of instructions issued per FU type, per thread (Count)
system.cpus0.issuedInstType_0::SimdReduceCmp            0      0.00%     79.78% # Number of instructions issued per FU type, per thread (Count)
system.cpus0.issuedInstType_0::SimdFloatReduceAdd            0      0.00%     79.78% # Number of instructions issued per FU type, per thread (Count)
system.cpus0.issuedInstType_0::SimdFloatReduceCmp            0      0.00%     79.78% # Number of instructions issued per FU type, per thread (Count)
system.cpus0.issuedInstType_0::SimdAes              0      0.00%     79.78% # Number of instructions issued per FU type, per thread (Count)
system.cpus0.issuedInstType_0::SimdAesMix            0      0.00%     79.78% # Number of instructions issued per FU type, per thread (Count)
system.cpus0.issuedInstType_0::SimdSha1Hash            0      0.00%     79.78% # Number of instructions issued per FU type, per thread (Count)
system.cpus0.issuedInstType_0::SimdSha1Hash2            0      0.00%     79.78% # Number of instructions issued per FU type, per thread (Count)
system.cpus0.issuedInstType_0::SimdSha256Hash            0      0.00%     79.78% # Number of instructions issued per FU type, per thread (Count)
system.cpus0.issuedInstType_0::SimdSha256Hash2            0      0.00%     79.78% # Number of instructions issued per FU type, per thread (Count)
system.cpus0.issuedInstType_0::SimdShaSigma2            0      0.00%     79.78% # Number of instructions issued per FU type, per thread (Count)
system.cpus0.issuedInstType_0::SimdShaSigma3            0      0.00%     79.78% # Number of instructions issued per FU type, per thread (Count)
system.cpus0.issuedInstType_0::SimdSha3             0      0.00%     79.78% # Number of instructions issued per FU type, per thread (Count)
system.cpus0.issuedInstType_0::SimdSm4e             0      0.00%     79.78% # Number of instructions issued per FU type, per thread (Count)
system.cpus0.issuedInstType_0::SimdCrc              0      0.00%     79.78% # Number of instructions issued per FU type, per thread (Count)
system.cpus0.issuedInstType_0::SimdPredAlu            0      0.00%     79.78% # Number of instructions issued per FU type, per thread (Count)
system.cpus0.issuedInstType_0::SimdDotProd            0      0.00%     79.78% # Number of instructions issued per FU type, per thread (Count)
system.cpus0.issuedInstType_0::Matrix               0      0.00%     79.78% # Number of instructions issued per FU type, per thread (Count)
system.cpus0.issuedInstType_0::MatrixMov            0      0.00%     79.78% # Number of instructions issued per FU type, per thread (Count)
system.cpus0.issuedInstType_0::MatrixOP             0      0.00%     79.78% # Number of instructions issued per FU type, per thread (Count)
system.cpus0.issuedInstType_0::MemRead       21622595      7.16%     86.95% # Number of instructions issued per FU type, per thread (Count)
system.cpus0.issuedInstType_0::MemWrite        829102      0.27%     87.22% # Number of instructions issued per FU type, per thread (Count)
system.cpus0.issuedInstType_0::FloatMemRead     36559907     12.11%     99.33% # Number of instructions issued per FU type, per thread (Count)
system.cpus0.issuedInstType_0::FloatMemWrite      2018215      0.67%    100.00% # Number of instructions issued per FU type, per thread (Count)
system.cpus0.issuedInstType_0::InstPrefetch            0      0.00%    100.00% # Number of instructions issued per FU type, per thread (Count)
system.cpus0.issuedInstType_0::SimdUnitStrideLoad            0      0.00%    100.00% # Number of instructions issued per FU type, per thread (Count)
system.cpus0.issuedInstType_0::SimdUnitStrideStore            0      0.00%    100.00% # Number of instructions issued per FU type, per thread (Count)
system.cpus0.issuedInstType_0::SimdUnitStrideMaskLoad            0      0.00%    100.00% # Number of instructions issued per FU type, per thread (Count)
system.cpus0.issuedInstType_0::SimdUnitStrideMaskStore            0      0.00%    100.00% # Number of instructions issued per FU type, per thread (Count)
system.cpus0.issuedInstType_0::SimdStridedLoad            0      0.00%    100.00% # Number of instructions issued per FU type, per thread (Count)
system.cpus0.issuedInstType_0::SimdStridedStore            0      0.00%    100.00% # Number of instructions issued per FU type, per thread (Count)
system.cpus0.issuedInstType_0::SimdIndexedLoad            0      0.00%    100.00% # Number of instructions issued per FU type, per thread (Count)
system.cpus0.issuedInstType_0::SimdIndexedStore            0      0.00%    100.00% # Number of instructions issued per FU type, per thread (Count)
system.cpus0.issuedInstType_0::SimdWholeRegisterLoad            0      0.00%    100.00% # Number of instructions issued per FU type, per thread (Count)
system.cpus0.issuedInstType_0::SimdWholeRegisterStore            0      0.00%    100.00% # Number of instructions issued per FU type, per thread (Count)
system.cpus0.issuedInstType_0::SimdUnitStrideFaultOnlyFirstLoad            0      0.00%    100.00% # Number of instructions issued per FU type, per thread (Count)
system.cpus0.issuedInstType_0::SimdUnitStrideSegmentedLoad            0      0.00%    100.00% # Number of instructions issued per FU type, per thread (Count)
system.cpus0.issuedInstType_0::SimdUnitStrideSegmentedStore            0      0.00%    100.00% # Number of instructions issued per FU type, per thread (Count)
system.cpus0.issuedInstType_0::SimdUnitStrideSegmentedFaultOnlyFirstLoad            0      0.00%    100.00% # Number of instructions issued per FU type, per thread (Count)
system.cpus0.issuedInstType_0::SimdStrideSegmentedLoad            0      0.00%    100.00% # Number of instructions issued per FU type, per thread (Count)
system.cpus0.issuedInstType_0::SimdStrideSegmentedStore            0      0.00%    100.00% # Number of instructions issued per FU type, per thread (Count)
system.cpus0.issuedInstType_0::SimdExt              0      0.00%    100.00% # Number of instructions issued per FU type, per thread (Count)
system.cpus0.issuedInstType_0::SimdFloatExt            0      0.00%    100.00% # Number of instructions issued per FU type, per thread (Count)
system.cpus0.issuedInstType_0::SimdConfig            0      0.00%    100.00% # Number of instructions issued per FU type, per thread (Count)
system.cpus0.issuedInstType_0::SimdBf16Add            0      0.00%    100.00% # Number of instructions issued per FU type, per thread (Count)
system.cpus0.issuedInstType_0::SimdBf16Cmp            0      0.00%    100.00% # Number of instructions issued per FU type, per thread (Count)
system.cpus0.issuedInstType_0::SimdBf16Cvt            0      0.00%    100.00% # Number of instructions issued per FU type, per thread (Count)
system.cpus0.issuedInstType_0::SimdBf16DotProd            0      0.00%    100.00% # Number of instructions issued per FU type, per thread (Count)
system.cpus0.issuedInstType_0::SimdBf16MatMultAcc            0      0.00%    100.00% # Number of instructions issued per FU type, per thread (Count)
system.cpus0.issuedInstType_0::SimdBf16Mult            0      0.00%    100.00% # Number of instructions issued per FU type, per thread (Count)
system.cpus0.issuedInstType_0::SimdBf16MultAcc            0      0.00%    100.00% # Number of instructions issued per FU type, per thread (Count)
system.cpus0.issuedInstType_0::Bf16Cvt              0      0.00%    100.00% # Number of instructions issued per FU type, per thread (Count)
system.cpus0.issuedInstType_0::System               0      0.00%    100.00% # Number of instructions issued per FU type, per thread (Count)
system.cpus0.issuedInstType_0::total        301868903                       # Number of instructions issued per FU type, per thread (Count)
system.cpus0.issueRate                       5.210466                       # Inst issue rate ((Count/Cycle))
system.cpus0.fuBusy                           5294883                       # FU busy when requested (Count)
system.cpus0.fuBusyRate                      0.017540                       # FU busy rate (busy events/executed inst) ((Count/Count))
system.cpus0.intInstQueueReads              478005793                       # Number of integer instruction queue reads (Count)
system.cpus0.intInstQueueWrites             224518574                       # Number of integer instruction queue writes (Count)
system.cpus0.intInstQueueWakeupAccesses     205506536                       # Number of integer instruction queue wakeup accesses (Count)
system.cpus0.fpInstQueueReads               189101635                       # Number of floating instruction queue reads (Count)
system.cpus0.fpInstQueueWrites              100069182                       # Number of floating instruction queue writes (Count)
system.cpus0.fpInstQueueWakeupAccesses       92772485                       # Number of floating instruction queue wakeup accesses (Count)
system.cpus0.vecInstQueueReads                      0                       # Number of vector instruction queue reads (Count)
system.cpus0.vecInstQueueWrites                     0                       # Number of vector instruction queue writes (Count)
system.cpus0.vecInstQueueWakeupAccesses             0                       # Number of vector instruction queue wakeup accesses (Count)
system.cpus0.intAluAccesses                 211322172                       # Number of integer alu accesses (Count)
system.cpus0.fpAluAccesses                   95136499                       # Number of floating point alu accesses (Count)
system.cpus0.vecAluAccesses                         0                       # Number of vector alu accesses (Count)
system.cpus0.numRecvResp                     60266972                       # Number of received responses (Count)
system.cpus0.numRecvRespBytes               396243636                       # Number of received response bytes (Byte)
system.cpus0.recvRespAvgBW                       6.84                       # Average bandwidth of received responses ((Byte/Cycle))
system.cpus0.recvRespAvgSize                     6.57                       # Average packet size per received response ((Byte/Count))
system.cpus0.recvRespAvgRate                     1.04                       # Average rate of received responses per cycle ((Count/Cycle))
system.cpus0.recvRespAvgRetryRate                0.00                       # Average retry rate per received response ((Count/Count))
system.cpus0.numSendRetryResp                       0                       # Number of retry responses sent (Count)
system.cpus0.numSquashedInsts                 2293636                       # Number of squashed instructions skipped in execute (Count)
system.cpus0.numSwp                                 0                       # Number of swp insts executed (Count)
system.cpus0.timesIdled                          1593                       # Number of times that the entire CPU went into an idle state and unscheduled itself (Count)
system.cpus0.idleCycles                        320226                       # Total number of cycles that the CPU has spent unscheduled due to idling (Cycle)
system.cpus0.MemDepUnit__0.insertedLoads     59169902                       # Number of loads inserted to the mem dependence unit. (Count)
system.cpus0.MemDepUnit__0.insertedStores      3016784                       # Number of stores inserted to the mem dependence unit. (Count)
system.cpus0.MemDepUnit__0.conflictingLoads       717999                       # Number of conflicting loads. (Count)
system.cpus0.MemDepUnit__0.conflictingStores       651030                       # Number of conflicting stores. (Count)
system.cpus0.MemDepUnit__1.insertedLoads            0                       # Number of loads inserted to the mem dependence unit. (Count)
system.cpus0.MemDepUnit__1.insertedStores            0                       # Number of stores inserted to the mem dependence unit. (Count)
system.cpus0.MemDepUnit__1.conflictingLoads            0                       # Number of conflicting loads. (Count)
system.cpus0.MemDepUnit__1.conflictingStores            0                       # Number of conflicting stores. (Count)
system.cpus0.MemDepUnit__2.insertedLoads            0                       # Number of loads inserted to the mem dependence unit. (Count)
system.cpus0.MemDepUnit__2.insertedStores            0                       # Number of stores inserted to the mem dependence unit. (Count)
system.cpus0.MemDepUnit__2.conflictingLoads            0                       # Number of conflicting loads. (Count)
system.cpus0.MemDepUnit__2.conflictingStores            0                       # Number of conflicting stores. (Count)
system.cpus0.MemDepUnit__3.insertedLoads            0                       # Number of loads inserted to the mem dependence unit. (Count)
system.cpus0.MemDepUnit__3.insertedStores            0                       # Number of stores inserted to the mem dependence unit. (Count)
system.cpus0.MemDepUnit__3.conflictingLoads            0                       # Number of conflicting loads. (Count)
system.cpus0.MemDepUnit__3.conflictingStores            0                       # Number of conflicting stores. (Count)
system.cpus0.bac.fetchTargets                       0                       # Number of fetch targets created  (Count)
system.cpus0.bac.branches                    28616186                       # Number of branches that BAC encountered (Count)
system.cpus0.bac.predTakenBranches           24172290                       # Number of branches that BAC predicted taken. (Count)
system.cpus0.bac.branchesNotLastuOp                 0                       # Number of branches that fetch encountered which are not the last uOp within a macrooperation. Jump to itself. (Count)
system.cpus0.bac.branchMisspredict             452236                       # Number of mispredicted branches (Count)
system.cpus0.bac.noBranchMisspredict             4126                       # Number of non-branch instructions mispredicted (Count)
system.cpus0.bac.squashBranchDecode              2148                       # Number of branches squashed from decode (Count)
system.cpus0.bac.squashBranchCommit            450088                       # Number of branches squashed from commit (Count)
system.cpus0.bac.preDecUpdate::NoBranch             0                       # Number of branches extracted from the predecoder (Count)
system.cpus0.bac.preDecUpdate::Return               0                       # Number of branches extracted from the predecoder (Count)
system.cpus0.bac.preDecUpdate::CallDirect            0                       # Number of branches extracted from the predecoder (Count)
system.cpus0.bac.preDecUpdate::CallIndirect            0                       # Number of branches extracted from the predecoder (Count)
system.cpus0.bac.preDecUpdate::DirectCond            0                       # Number of branches extracted from the predecoder (Count)
system.cpus0.bac.preDecUpdate::DirectUncond            0                       # Number of branches extracted from the predecoder (Count)
system.cpus0.bac.preDecUpdate::IndirectCond            0                       # Number of branches extracted from the predecoder (Count)
system.cpus0.bac.preDecUpdate::IndirectUncond            0                       # Number of branches extracted from the predecoder (Count)
system.cpus0.bac.preDecUpdate::total                0                       # Number of branches extracted from the predecoder (Count)
system.cpus0.bac.noHistByType::NoBranch             0                       # Number and type of branches that were undetected by the BPU. (Count)
system.cpus0.bac.noHistByType::Return               0                       # Number and type of branches that were undetected by the BPU. (Count)
system.cpus0.bac.noHistByType::CallDirect            0                       # Number and type of branches that were undetected by the BPU. (Count)
system.cpus0.bac.noHistByType::CallIndirect            0                       # Number and type of branches that were undetected by the BPU. (Count)
system.cpus0.bac.noHistByType::DirectCond            0                       # Number and type of branches that were undetected by the BPU. (Count)
system.cpus0.bac.noHistByType::DirectUncond            0                       # Number and type of branches that were undetected by the BPU. (Count)
system.cpus0.bac.noHistByType::IndirectCond            0                       # Number and type of branches that were undetected by the BPU. (Count)
system.cpus0.bac.noHistByType::IndirectUncond            0                       # Number and type of branches that were undetected by the BPU. (Count)
system.cpus0.bac.noHistByType::total                0                       # Number and type of branches that were undetected by the BPU. (Count)
system.cpus0.bac.typeMissmatch                      0                       # Number branches where the branch type miss match (Count)
system.cpus0.bac.multiBranchInst                    0                       # Number branches because its not the last branch. (Count)
system.cpus0.bac.ftSizeDist::samples                0                       # Number of bytes per fetch target (Count)
system.cpus0.bac.ftSizeDist::mean                 nan                       # Number of bytes per fetch target (Count)
system.cpus0.bac.ftSizeDist::stdev                nan                       # Number of bytes per fetch target (Count)
system.cpus0.bac.ftSizeDist::underflows             0                       # Number of bytes per fetch target (Count)
system.cpus0.bac.ftSizeDist::0-3                    0                       # Number of bytes per fetch target (Count)
system.cpus0.bac.ftSizeDist::4-7                    0                       # Number of bytes per fetch target (Count)
system.cpus0.bac.ftSizeDist::8-11                   0                       # Number of bytes per fetch target (Count)
system.cpus0.bac.ftSizeDist::12-15                  0                       # Number of bytes per fetch target (Count)
system.cpus0.bac.ftSizeDist::16-19                  0                       # Number of bytes per fetch target (Count)
system.cpus0.bac.ftSizeDist::20-23                  0                       # Number of bytes per fetch target (Count)
system.cpus0.bac.ftSizeDist::24-27                  0                       # Number of bytes per fetch target (Count)
system.cpus0.bac.ftSizeDist::28-31                  0                       # Number of bytes per fetch target (Count)
system.cpus0.bac.ftSizeDist::32                     0                       # Number of bytes per fetch target (Count)
system.cpus0.bac.ftSizeDist::overflows              0                       # Number of bytes per fetch target (Count)
system.cpus0.bac.ftSizeDist::min_value              0                       # Number of bytes per fetch target (Count)
system.cpus0.bac.ftSizeDist::max_value              0                       # Number of bytes per fetch target (Count)
system.cpus0.bac.ftSizeDist::total                  0                       # Number of bytes per fetch target (Count)
system.cpus0.bac.ftNumber::samples                  0                       # Number of fetch target inserted to the FTQ per cycle (Count)
system.cpus0.bac.ftNumber::mean                   nan                       # Number of fetch target inserted to the FTQ per cycle (Count)
system.cpus0.bac.ftNumber::stdev                  nan                       # Number of fetch target inserted to the FTQ per cycle (Count)
system.cpus0.bac.ftNumber::underflows               0                       # Number of fetch target inserted to the FTQ per cycle (Count)
system.cpus0.bac.ftNumber::0                        0                       # Number of fetch target inserted to the FTQ per cycle (Count)
system.cpus0.bac.ftNumber::1                        0                       # Number of fetch target inserted to the FTQ per cycle (Count)
system.cpus0.bac.ftNumber::2                        0                       # Number of fetch target inserted to the FTQ per cycle (Count)
system.cpus0.bac.ftNumber::3                        0                       # Number of fetch target inserted to the FTQ per cycle (Count)
system.cpus0.bac.ftNumber::4                        0                       # Number of fetch target inserted to the FTQ per cycle (Count)
system.cpus0.bac.ftNumber::overflows                0                       # Number of fetch target inserted to the FTQ per cycle (Count)
system.cpus0.bac.ftNumber::min_value                0                       # Number of fetch target inserted to the FTQ per cycle (Count)
system.cpus0.bac.ftNumber::max_value                0                       # Number of fetch target inserted to the FTQ per cycle (Count)
system.cpus0.bac.ftNumber::total                    0                       # Number of fetch target inserted to the FTQ per cycle (Count)
system.cpus0.branchPred.lookups_0::NoBranch          618      0.00%      0.00% # Number of BP lookups (Count)
system.cpus0.branchPred.lookups_0::Return        47209      0.16%      0.17% # Number of BP lookups (Count)
system.cpus0.branchPred.lookups_0::CallDirect        48158      0.17%      0.34% # Number of BP lookups (Count)
system.cpus0.branchPred.lookups_0::CallIndirect          533      0.00%      0.34% # Number of BP lookups (Count)
system.cpus0.branchPred.lookups_0::DirectCond     28393910     99.22%     99.56% # Number of BP lookups (Count)
system.cpus0.branchPred.lookups_0::DirectUncond       107878      0.38%     99.94% # Number of BP lookups (Count)
system.cpus0.branchPred.lookups_0::IndirectCond            0      0.00%     99.94% # Number of BP lookups (Count)
system.cpus0.branchPred.lookups_0::IndirectUncond        17880      0.06%    100.00% # Number of BP lookups (Count)
system.cpus0.branchPred.lookups_0::total     28616186                       # Number of BP lookups (Count)
system.cpus0.branchPred.squashes_0::NoBranch          601      0.02%      0.02% # Number of branches that got squashed (completely removed) as an earlier branch was mispredicted. (Count)
system.cpus0.branchPred.squashes_0::Return        15091      0.45%      0.47% # Number of branches that got squashed (completely removed) as an earlier branch was mispredicted. (Count)
system.cpus0.branchPred.squashes_0::CallDirect        16223      0.49%      0.95% # Number of branches that got squashed (completely removed) as an earlier branch was mispredicted. (Count)
system.cpus0.branchPred.squashes_0::CallIndirect          345      0.01%      0.96% # Number of branches that got squashed (completely removed) as an earlier branch was mispredicted. (Count)
system.cpus0.branchPred.squashes_0::DirectCond      3275427     97.95%     98.92% # Number of branches that got squashed (completely removed) as an earlier branch was mispredicted. (Count)
system.cpus0.branchPred.squashes_0::DirectUncond        28817      0.86%     99.78% # Number of branches that got squashed (completely removed) as an earlier branch was mispredicted. (Count)
system.cpus0.branchPred.squashes_0::IndirectCond            0      0.00%     99.78% # Number of branches that got squashed (completely removed) as an earlier branch was mispredicted. (Count)
system.cpus0.branchPred.squashes_0::IndirectUncond         7392      0.22%    100.00% # Number of branches that got squashed (completely removed) as an earlier branch was mispredicted. (Count)
system.cpus0.branchPred.squashes_0::total      3343896                       # Number of branches that got squashed (completely removed) as an earlier branch was mispredicted. (Count)
system.cpus0.branchPred.corrected_0::NoBranch           90      0.02%      0.02% # Number of branches that got corrected but not yet commited. Branches get corrected by decode or after execute. Also a branch misprediction can be detected out-of-order. Therefore, a corrected branch might not end up beeing committed in case an even earlier branch was mispredicted (Count)
system.cpus0.branchPred.corrected_0::Return            6      0.00%      0.02% # Number of branches that got corrected but not yet commited. Branches get corrected by decode or after execute. Also a branch misprediction can be detected out-of-order. Therefore, a corrected branch might not end up beeing committed in case an even earlier branch was mispredicted (Count)
system.cpus0.branchPred.corrected_0::CallDirect         1293      0.29%      0.31% # Number of branches that got corrected but not yet commited. Branches get corrected by decode or after execute. Also a branch misprediction can be detected out-of-order. Therefore, a corrected branch might not end up beeing committed in case an even earlier branch was mispredicted (Count)
system.cpus0.branchPred.corrected_0::CallIndirect          103      0.02%      0.33% # Number of branches that got corrected but not yet commited. Branches get corrected by decode or after execute. Also a branch misprediction can be detected out-of-order. Therefore, a corrected branch might not end up beeing committed in case an even earlier branch was mispredicted (Count)
system.cpus0.branchPred.corrected_0::DirectCond       448502     99.17%     99.50% # Number of branches that got corrected but not yet commited. Branches get corrected by decode or after execute. Also a branch misprediction can be detected out-of-order. Therefore, a corrected branch might not end up beeing committed in case an even earlier branch was mispredicted (Count)
system.cpus0.branchPred.corrected_0::DirectUncond          809      0.18%     99.68% # Number of branches that got corrected but not yet commited. Branches get corrected by decode or after execute. Also a branch misprediction can be detected out-of-order. Therefore, a corrected branch might not end up beeing committed in case an even earlier branch was mispredicted (Count)
system.cpus0.branchPred.corrected_0::IndirectCond            0      0.00%     99.68% # Number of branches that got corrected but not yet commited. Branches get corrected by decode or after execute. Also a branch misprediction can be detected out-of-order. Therefore, a corrected branch might not end up beeing committed in case an even earlier branch was mispredicted (Count)
system.cpus0.branchPred.corrected_0::IndirectUncond         1433      0.32%    100.00% # Number of branches that got corrected but not yet commited. Branches get corrected by decode or after execute. Also a branch misprediction can be detected out-of-order. Therefore, a corrected branch might not end up beeing committed in case an even earlier branch was mispredicted (Count)
system.cpus0.branchPred.corrected_0::total       452236                       # Number of branches that got corrected but not yet commited. Branches get corrected by decode or after execute. Also a branch misprediction can be detected out-of-order. Therefore, a corrected branch might not end up beeing committed in case an even earlier branch was mispredicted (Count)
system.cpus0.branchPred.earlyResteers_0::NoBranch            0      0.00%      0.00% # Number of branches that got redirected after decode. (Count)
system.cpus0.branchPred.earlyResteers_0::Return            0      0.00%      0.00% # Number of branches that got redirected after decode. (Count)
system.cpus0.branchPred.earlyResteers_0::CallDirect         1293     60.20%     60.20% # Number of branches that got redirected after decode. (Count)
system.cpus0.branchPred.earlyResteers_0::CallIndirect            0      0.00%     60.20% # Number of branches that got redirected after decode. (Count)
system.cpus0.branchPred.earlyResteers_0::DirectCond           46      2.14%     62.34% # Number of branches that got redirected after decode. (Count)
system.cpus0.branchPred.earlyResteers_0::DirectUncond          809     37.66%    100.00% # Number of branches that got redirected after decode. (Count)
system.cpus0.branchPred.earlyResteers_0::IndirectCond            0      0.00%    100.00% # Number of branches that got redirected after decode. (Count)
system.cpus0.branchPred.earlyResteers_0::IndirectUncond            0      0.00%    100.00% # Number of branches that got redirected after decode. (Count)
system.cpus0.branchPred.earlyResteers_0::total         2148                       # Number of branches that got redirected after decode. (Count)
system.cpus0.branchPred.committed_0::NoBranch           17      0.00%      0.00% # Number of branches finally committed  (Count)
system.cpus0.branchPred.committed_0::Return        32118      0.13%      0.13% # Number of branches finally committed  (Count)
system.cpus0.branchPred.committed_0::CallDirect        31935      0.13%      0.25% # Number of branches finally committed  (Count)
system.cpus0.branchPred.committed_0::CallIndirect          188      0.00%      0.25% # Number of branches finally committed  (Count)
system.cpus0.branchPred.committed_0::DirectCond     25118482     99.39%     99.65% # Number of branches finally committed  (Count)
system.cpus0.branchPred.committed_0::DirectUncond        79061      0.31%     99.96% # Number of branches finally committed  (Count)
system.cpus0.branchPred.committed_0::IndirectCond            0      0.00%     99.96% # Number of branches finally committed  (Count)
system.cpus0.branchPred.committed_0::IndirectUncond        10488      0.04%    100.00% # Number of branches finally committed  (Count)
system.cpus0.branchPred.committed_0::total     25272289                       # Number of branches finally committed  (Count)
system.cpus0.branchPred.mispredicted_0::NoBranch           17      0.00%      0.00% # Number of committed branches that were mispredicted. (Count)
system.cpus0.branchPred.mispredicted_0::Return            0      0.00%      0.00% # Number of committed branches that were mispredicted. (Count)
system.cpus0.branchPred.mispredicted_0::CallDirect          785      0.17%      0.18% # Number of committed branches that were mispredicted. (Count)
system.cpus0.branchPred.mispredicted_0::CallIndirect           89      0.02%      0.20% # Number of committed branches that were mispredicted. (Count)
system.cpus0.branchPred.mispredicted_0::DirectCond       447020     99.40%     99.59% # Number of committed branches that were mispredicted. (Count)
system.cpus0.branchPred.mispredicted_0::DirectUncond          494      0.11%     99.70% # Number of committed branches that were mispredicted. (Count)
system.cpus0.branchPred.mispredicted_0::IndirectCond            0      0.00%     99.70% # Number of committed branches that were mispredicted. (Count)
system.cpus0.branchPred.mispredicted_0::IndirectUncond         1329      0.30%    100.00% # Number of committed branches that were mispredicted. (Count)
system.cpus0.branchPred.mispredicted_0::total       449734                       # Number of committed branches that were mispredicted. (Count)
system.cpus0.branchPred.mispredictDueToPredictor_0::NoBranch           17      0.00%      0.00% # Number of committed branches that were mispredicted by the predictor. (Count)
system.cpus0.branchPred.mispredictDueToPredictor_0::Return            0      0.00%      0.00% # Number of committed branches that were mispredicted by the predictor. (Count)
system.cpus0.branchPred.mispredictDueToPredictor_0::CallDirect            0      0.00%      0.00% # Number of committed branches that were mispredicted by the predictor. (Count)
system.cpus0.branchPred.mispredictDueToPredictor_0::CallIndirect            0      0.00%      0.00% # Number of committed branches that were mispredicted by the predictor. (Count)
system.cpus0.branchPred.mispredictDueToPredictor_0::DirectCond       445265    100.00%    100.00% # Number of committed branches that were mispredicted by the predictor. (Count)
system.cpus0.branchPred.mispredictDueToPredictor_0::DirectUncond            0      0.00%    100.00% # Number of committed branches that were mispredicted by the predictor. (Count)
system.cpus0.branchPred.mispredictDueToPredictor_0::IndirectCond            0      0.00%    100.00% # Number of committed branches that were mispredicted by the predictor. (Count)
system.cpus0.branchPred.mispredictDueToPredictor_0::IndirectUncond            0      0.00%    100.00% # Number of committed branches that were mispredicted by the predictor. (Count)
system.cpus0.branchPred.mispredictDueToPredictor_0::total       445282                       # Number of committed branches that were mispredicted by the predictor. (Count)
system.cpus0.branchPred.mispredictDueToBTBMiss_0::NoBranch            0      0.00%      0.00% # Number of committed branches that were mispredicted because of a BTB miss. (Count)
system.cpus0.branchPred.mispredictDueToBTBMiss_0::Return            0      0.00%      0.00% # Number of committed branches that were mispredicted because of a BTB miss. (Count)
system.cpus0.branchPred.mispredictDueToBTBMiss_0::CallDirect          785     17.63%     17.63% # Number of committed branches that were mispredicted because of a BTB miss. (Count)
system.cpus0.branchPred.mispredictDueToBTBMiss_0::CallIndirect           89      2.00%     19.63% # Number of committed branches that were mispredicted because of a BTB miss. (Count)
system.cpus0.branchPred.mispredictDueToBTBMiss_0::DirectCond         1755     39.42%     59.05% # Number of committed branches that were mispredicted because of a BTB miss. (Count)
system.cpus0.branchPred.mispredictDueToBTBMiss_0::DirectUncond          494     11.10%     70.15% # Number of committed branches that were mispredicted because of a BTB miss. (Count)
system.cpus0.branchPred.mispredictDueToBTBMiss_0::IndirectCond            0      0.00%     70.15% # Number of committed branches that were mispredicted because of a BTB miss. (Count)
system.cpus0.branchPred.mispredictDueToBTBMiss_0::IndirectUncond         1329     29.85%    100.00% # Number of committed branches that were mispredicted because of a BTB miss. (Count)
system.cpus0.branchPred.mispredictDueToBTBMiss_0::total         4452                       # Number of committed branches that were mispredicted because of a BTB miss. (Count)
system.cpus0.branchPred.targetProvider_0::NoTarget      4443896     15.53%     15.53% # The component providing the target for taken branches (Count)
system.cpus0.branchPred.targetProvider_0::BTB     24113306     84.26%     99.79% # The component providing the target for taken branches (Count)
system.cpus0.branchPred.targetProvider_0::RAS        47209      0.16%     99.96% # The component providing the target for taken branches (Count)
system.cpus0.branchPred.targetProvider_0::Indirect        11775      0.04%    100.00% # The component providing the target for taken branches (Count)
system.cpus0.branchPred.targetProvider_0::total     28616186                       # The component providing the target for taken branches (Count)
system.cpus0.branchPred.targetWrong_0::NoBranch        29354      6.50%      6.50% # Number of branches where the target was incorrect or not available at prediction time. (Count)
system.cpus0.branchPred.targetWrong_0::Return       421478     93.30%     99.80% # Number of branches where the target was incorrect or not available at prediction time. (Count)
system.cpus0.branchPred.targetWrong_0::CallDirect            6      0.00%     99.80% # Number of branches where the target was incorrect or not available at prediction time. (Count)
system.cpus0.branchPred.targetWrong_0::CallIndirect          920      0.20%    100.00% # Number of branches where the target was incorrect or not available at prediction time. (Count)
system.cpus0.branchPred.targetWrong_0::DirectCond            0      0.00%    100.00% # Number of branches where the target was incorrect or not available at prediction time. (Count)
system.cpus0.branchPred.targetWrong_0::DirectUncond            0      0.00%    100.00% # Number of branches where the target was incorrect or not available at prediction time. (Count)
system.cpus0.branchPred.targetWrong_0::IndirectCond            0      0.00%    100.00% # Number of branches where the target was incorrect or not available at prediction time. (Count)
system.cpus0.branchPred.targetWrong_0::IndirectUncond            0      0.00%    100.00% # Number of branches where the target was incorrect or not available at prediction time. (Count)
system.cpus0.branchPred.targetWrong_0::total       451758                       # Number of branches where the target was incorrect or not available at prediction time. (Count)
system.cpus0.branchPred.condPredicted        28393910                       # Number of conditional branches predicted (Count)
system.cpus0.branchPred.condPredictedTaken     23964840                       # Number of conditional branches predicted as taken (Count)
system.cpus0.branchPred.condIncorrect          449734                       # Number of conditional branches incorrect (Count)
system.cpus0.branchPred.predTakenBTBMiss         3147                       # Number of branches predicted taken but missed in BTB (Count)
system.cpus0.branchPred.BTBLookups           28616186                       # Number of BTB lookups (Count)
system.cpus0.branchPred.BTBUpdates              29099                       # Number of BTB updates (Count)
system.cpus0.branchPred.BTBHits              26800209                       # Number of BTB hits (Count)
system.cpus0.branchPred.BTBHitRatio          0.936540                       # BTB Hit Ratio (Ratio)
system.cpus0.branchPred.BTBMispredicted          4102                       # Number BTB mispredictions. No target found or target wrong (Count)
system.cpus0.branchPred.indirectLookups         18413                       # Number of indirect predictor lookups. (Count)
system.cpus0.branchPred.indirectHits            11775                       # Number of indirect target hits. (Count)
system.cpus0.branchPred.indirectMisses           6638                       # Number of indirect misses. (Count)
system.cpus0.branchPred.indirectMispredicted            0                       # Number of mispredicted indirect branches. (Count)
system.cpus0.branchPred.btb.lookups::NoBranch          618      0.00%      0.00% # Number of BTB lookups (Count)
system.cpus0.branchPred.btb.lookups::Return        47209      0.16%      0.17% # Number of BTB lookups (Count)
system.cpus0.branchPred.btb.lookups::CallDirect        48158      0.17%      0.34% # Number of BTB lookups (Count)
system.cpus0.branchPred.btb.lookups::CallIndirect          533      0.00%      0.34% # Number of BTB lookups (Count)
system.cpus0.branchPred.btb.lookups::DirectCond     28393910     99.22%     99.56% # Number of BTB lookups (Count)
system.cpus0.branchPred.btb.lookups::DirectUncond       107878      0.38%     99.94% # Number of BTB lookups (Count)
system.cpus0.branchPred.btb.lookups::IndirectCond            0      0.00%     99.94% # Number of BTB lookups (Count)
system.cpus0.branchPred.btb.lookups::IndirectUncond        17880      0.06%    100.00% # Number of BTB lookups (Count)
system.cpus0.branchPred.btb.lookups::total     28616186                       # Number of BTB lookups (Count)
system.cpus0.branchPred.btb.misses::NoBranch          196      0.01%      0.01% # Number of BTB misses (Count)
system.cpus0.branchPred.btb.misses::Return        47209      2.60%      2.61% # Number of BTB misses (Count)
system.cpus0.branchPred.btb.misses::CallDirect         1912      0.11%      2.72% # Number of BTB misses (Count)
system.cpus0.branchPred.btb.misses::CallIndirect          533      0.03%      2.75% # Number of BTB misses (Count)
system.cpus0.branchPred.btb.misses::DirectCond      1747068     96.21%     98.95% # Number of BTB misses (Count)
system.cpus0.branchPred.btb.misses::DirectUncond         1179      0.06%     99.02% # Number of BTB misses (Count)
system.cpus0.branchPred.btb.misses::IndirectCond            0      0.00%     99.02% # Number of BTB misses (Count)
system.cpus0.branchPred.btb.misses::IndirectUncond        17880      0.98%    100.00% # Number of BTB misses (Count)
system.cpus0.branchPred.btb.misses::total      1815977                       # Number of BTB misses (Count)
system.cpus0.branchPred.btb.updates::NoBranch           90      0.31%      0.31% # Number of BTB updates (Count)
system.cpus0.branchPred.btb.updates::Return            0      0.00%      0.31% # Number of BTB updates (Count)
system.cpus0.branchPred.btb.updates::CallDirect         1293      4.44%      4.75% # Number of BTB updates (Count)
system.cpus0.branchPred.btb.updates::CallIndirect            0      0.00%      4.75% # Number of BTB updates (Count)
system.cpus0.branchPred.btb.updates::DirectCond        26907     92.47%     97.22% # Number of BTB updates (Count)
system.cpus0.branchPred.btb.updates::DirectUncond          809      2.78%    100.00% # Number of BTB updates (Count)
system.cpus0.branchPred.btb.updates::IndirectCond            0      0.00%    100.00% # Number of BTB updates (Count)
system.cpus0.branchPred.btb.updates::IndirectUncond            0      0.00%    100.00% # Number of BTB updates (Count)
system.cpus0.branchPred.btb.updates::total        29099                       # Number of BTB updates (Count)
system.cpus0.branchPred.btb.mispredict::NoBranch           90      0.31%      0.31% # Number of BTB mispredictions. No target found or target wrong. (Count)
system.cpus0.branchPred.btb.mispredict::Return            0      0.00%      0.31% # Number of BTB mispredictions. No target found or target wrong. (Count)
system.cpus0.branchPred.btb.mispredict::CallDirect         1293      4.44%      4.75% # Number of BTB mispredictions. No target found or target wrong. (Count)
system.cpus0.branchPred.btb.mispredict::CallIndirect            0      0.00%      4.75% # Number of BTB mispredictions. No target found or target wrong. (Count)
system.cpus0.branchPred.btb.mispredict::DirectCond        26907     92.47%     97.22% # Number of BTB mispredictions. No target found or target wrong. (Count)
system.cpus0.branchPred.btb.mispredict::DirectUncond          809      2.78%    100.00% # Number of BTB mispredictions. No target found or target wrong. (Count)
system.cpus0.branchPred.btb.mispredict::IndirectCond            0      0.00%    100.00% # Number of BTB mispredictions. No target found or target wrong. (Count)
system.cpus0.branchPred.btb.mispredict::IndirectUncond            0      0.00%    100.00% # Number of BTB mispredictions. No target found or target wrong. (Count)
system.cpus0.branchPred.btb.mispredict::total        29099                       # Number of BTB mispredictions. No target found or target wrong. (Count)
system.cpus0.branchPred.btb.power_state.pwrStateResidencyTicks::UNDEFINED  14483775250                       # Cumulative time (in ticks) in various power states (Tick)
system.cpus0.branchPred.indirectBranchPred.lookups        18413                       # Number of lookups (Count)
system.cpus0.branchPred.indirectBranchPred.hits        11775                       # Number of hits of a tag (Count)
system.cpus0.branchPred.indirectBranchPred.misses         6638                       # Number of misses (Count)
system.cpus0.branchPred.indirectBranchPred.targetRecords         1536                       # Number of targets that where recorded/installed in the cache (Count)
system.cpus0.branchPred.indirectBranchPred.indirectRecords        19949                       # Number of indirect branches/calls recorded in the indirect hist (Count)
system.cpus0.branchPred.indirectBranchPred.speculativeOverflows           11                       # Number of times more than the allowed capacity for speculative branches/calls where in flight and destroy the path history (Count)
system.cpus0.branchPred.ras.pushes              63782                       # Number of times a PC was pushed onto the RAS (Count)
system.cpus0.branchPred.ras.pops                63777                       # Number of times a PC was poped from the RAS (Count)
system.cpus0.branchPred.ras.squashes            31659                       # Number of times the stack operation was squashed due to wrong speculation. (Count)
system.cpus0.branchPred.ras.used                32118                       # Number of times the RAS is the provider (Count)
system.cpus0.branchPred.ras.correct             32118                       # Number of times the RAS is the provider and the prediction is correct (Count)
system.cpus0.branchPred.ras.incorrect               0                       # Number of times the RAS is the provider and the prediction is wrong (Count)
system.cpus0.clk_domain.clock                     250                       # Clock period in ticks (Tick)
system.cpus0.clk_domain.voltage_domain.voltage            1                       # Voltage in Volts (Volt)
system.cpus0.commit.status::running          57579343     99.94%     99.94% # Number of cycles commit is running (Cycle)
system.cpus0.commit.status::idle                    1      0.00%     99.94% # Number of cycles commit is idle (Cycle)
system.cpus0.commit.status::trapPending         35532      0.06%    100.00% # Number of cycles commit is processing a trap (Cycle)
system.cpus0.commit.commitSquashedInsts      16231781                       # The number of squashed insts skipped by commit (Count)
system.cpus0.commit.commitNonSpecStalls         10672                       # The number of times commit has been forced to stall to communicate backwards (Count)
system.cpus0.commit.branchMispredicts          450177                       # The number of times a branch was mispredicted (Count)
system.cpus0.commit.numCommittedDist::samples     57160662                       # Number of insts commited each cycle (Count)
system.cpus0.commit.numCommittedDist::mean     5.109949                       # Number of insts commited each cycle (Count)
system.cpus0.commit.numCommittedDist::stdev     3.384445                       # Number of insts commited each cycle (Count)
system.cpus0.commit.numCommittedDist::underflows            0      0.00%      0.00% # Number of insts commited each cycle (Count)
system.cpus0.commit.numCommittedDist::0      11024102     19.29%     19.29% # Number of insts commited each cycle (Count)
system.cpus0.commit.numCommittedDist::1       2956962      5.17%     24.46% # Number of insts commited each cycle (Count)
system.cpus0.commit.numCommittedDist::2       3510966      6.14%     30.60% # Number of insts commited each cycle (Count)
system.cpus0.commit.numCommittedDist::3       4825571      8.44%     39.04% # Number of insts commited each cycle (Count)
system.cpus0.commit.numCommittedDist::4       1429996      2.50%     41.55% # Number of insts commited each cycle (Count)
system.cpus0.commit.numCommittedDist::5        540817      0.95%     42.49% # Number of insts commited each cycle (Count)
system.cpus0.commit.numCommittedDist::6       1594297      2.79%     45.28% # Number of insts commited each cycle (Count)
system.cpus0.commit.numCommittedDist::7        580979      1.02%     46.30% # Number of insts commited each cycle (Count)
system.cpus0.commit.numCommittedDist::8      30696972     53.70%    100.00% # Number of insts commited each cycle (Count)
system.cpus0.commit.numCommittedDist::overflows            0      0.00%    100.00% # Number of insts commited each cycle (Count)
system.cpus0.commit.numCommittedDist::min_value            0                       # Number of insts commited each cycle (Count)
system.cpus0.commit.numCommittedDist::max_value            8                       # Number of insts commited each cycle (Count)
system.cpus0.commit.numCommittedDist::total     57160662                       # Number of insts commited each cycle (Count)
system.cpus0.commit.amos                            0                       # Number of atomic instructions committed (Count)
system.cpus0.commit.membars                      7092                       # Number of memory barriers committed (Count)
system.cpus0.commit.committedInstType_0::No_OpClass       684910      0.23%      0.23% # Class of committed instruction (Count)
system.cpus0.commit.committedInstType_0::IntAlu    178997333     61.28%     61.52% # Class of committed instruction (Count)
system.cpus0.commit.committedInstType_0::IntMult        16900      0.01%     61.52% # Class of committed instruction (Count)
system.cpus0.commit.committedInstType_0::IntDiv        18947      0.01%     61.53% # Class of committed instruction (Count)
system.cpus0.commit.committedInstType_0::FloatAdd     16903026      5.79%     67.32% # Class of committed instruction (Count)
system.cpus0.commit.committedInstType_0::FloatCmp            0      0.00%     67.32% # Class of committed instruction (Count)
system.cpus0.commit.committedInstType_0::FloatCvt            0      0.00%     67.32% # Class of committed instruction (Count)
system.cpus0.commit.committedInstType_0::FloatMult            0      0.00%     67.32% # Class of committed instruction (Count)
system.cpus0.commit.committedInstType_0::FloatMultAcc            0      0.00%     67.32% # Class of committed instruction (Count)
system.cpus0.commit.committedInstType_0::FloatDiv            0      0.00%     67.32% # Class of committed instruction (Count)
system.cpus0.commit.committedInstType_0::FloatMisc            0      0.00%     67.32% # Class of committed instruction (Count)
system.cpus0.commit.committedInstType_0::FloatSqrt            0      0.00%     67.32% # Class of committed instruction (Count)
system.cpus0.commit.committedInstType_0::SimdAdd        38664      0.01%     67.33% # Class of committed instruction (Count)
system.cpus0.commit.committedInstType_0::SimdAddAcc            0      0.00%     67.33% # Class of committed instruction (Count)
system.cpus0.commit.committedInstType_0::SimdAlu       688918      0.24%     67.56% # Class of committed instruction (Count)
system.cpus0.commit.committedInstType_0::SimdCmp           10      0.00%     67.56% # Class of committed instruction (Count)
system.cpus0.commit.committedInstType_0::SimdCvt         1462      0.00%     67.57% # Class of committed instruction (Count)
system.cpus0.commit.committedInstType_0::SimdMisc        94861      0.03%     67.60% # Class of committed instruction (Count)
system.cpus0.commit.committedInstType_0::SimdMult            0      0.00%     67.60% # Class of committed instruction (Count)
system.cpus0.commit.committedInstType_0::SimdMultAcc            0      0.00%     67.60% # Class of committed instruction (Count)
system.cpus0.commit.committedInstType_0::SimdMatMultAcc            0      0.00%     67.60% # Class of committed instruction (Count)
system.cpus0.commit.committedInstType_0::SimdShift          985      0.00%     67.60% # Class of committed instruction (Count)
system.cpus0.commit.committedInstType_0::SimdShiftAcc            0      0.00%     67.60% # Class of committed instruction (Count)
system.cpus0.commit.committedInstType_0::SimdDiv            0      0.00%     67.60% # Class of committed instruction (Count)
system.cpus0.commit.committedInstType_0::SimdSqrt            0      0.00%     67.60% # Class of committed instruction (Count)
system.cpus0.commit.committedInstType_0::SimdFloatAdd     17795015      6.09%     73.69% # Class of committed instruction (Count)
system.cpus0.commit.committedInstType_0::SimdFloatAlu            0      0.00%     73.69% # Class of committed instruction (Count)
system.cpus0.commit.committedInstType_0::SimdFloatCmp            0      0.00%     73.69% # Class of committed instruction (Count)
system.cpus0.commit.committedInstType_0::SimdFloatCvt        50715      0.02%     73.71% # Class of committed instruction (Count)
system.cpus0.commit.committedInstType_0::SimdFloatDiv          828      0.00%     73.71% # Class of committed instruction (Count)
system.cpus0.commit.committedInstType_0::SimdFloatMisc            0      0.00%     73.71% # Class of committed instruction (Count)
system.cpus0.commit.committedInstType_0::SimdFloatMult     17821426      6.10%     79.81% # Class of committed instruction (Count)
system.cpus0.commit.committedInstType_0::SimdFloatMultAcc            0      0.00%     79.81% # Class of committed instruction (Count)
system.cpus0.commit.committedInstType_0::SimdFloatMatMultAcc            0      0.00%     79.81% # Class of committed instruction (Count)
system.cpus0.commit.committedInstType_0::SimdFloatSqrt           32      0.00%     79.81% # Class of committed instruction (Count)
system.cpus0.commit.committedInstType_0::SimdReduceAdd            0      0.00%     79.81% # Class of committed instruction (Count)
system.cpus0.commit.committedInstType_0::SimdReduceAlu            0      0.00%     79.81% # Class of committed instruction (Count)
system.cpus0.commit.committedInstType_0::SimdReduceCmp            0      0.00%     79.81% # Class of committed instruction (Count)
system.cpus0.commit.committedInstType_0::SimdFloatReduceAdd            0      0.00%     79.81% # Class of committed instruction (Count)
system.cpus0.commit.committedInstType_0::SimdFloatReduceCmp            0      0.00%     79.81% # Class of committed instruction (Count)
system.cpus0.commit.committedInstType_0::SimdAes            0      0.00%     79.81% # Class of committed instruction (Count)
system.cpus0.commit.committedInstType_0::SimdAesMix            0      0.00%     79.81% # Class of committed instruction (Count)
system.cpus0.commit.committedInstType_0::SimdSha1Hash            0      0.00%     79.81% # Class of committed instruction (Count)
system.cpus0.commit.committedInstType_0::SimdSha1Hash2            0      0.00%     79.81% # Class of committed instruction (Count)
system.cpus0.commit.committedInstType_0::SimdSha256Hash            0      0.00%     79.81% # Class of committed instruction (Count)
system.cpus0.commit.committedInstType_0::SimdSha256Hash2            0      0.00%     79.81% # Class of committed instruction (Count)
system.cpus0.commit.committedInstType_0::SimdShaSigma2            0      0.00%     79.81% # Class of committed instruction (Count)
system.cpus0.commit.committedInstType_0::SimdShaSigma3            0      0.00%     79.81% # Class of committed instruction (Count)
system.cpus0.commit.committedInstType_0::SimdSha3            0      0.00%     79.81% # Class of committed instruction (Count)
system.cpus0.commit.committedInstType_0::SimdSm4e            0      0.00%     79.81% # Class of committed instruction (Count)
system.cpus0.commit.committedInstType_0::SimdCrc            0      0.00%     79.81% # Class of committed instruction (Count)
system.cpus0.commit.committedInstType_0::SimdPredAlu            0      0.00%     79.81% # Class of committed instruction (Count)
system.cpus0.commit.committedInstType_0::SimdDotProd            0      0.00%     79.81% # Class of committed instruction (Count)
system.cpus0.commit.committedInstType_0::Matrix            0      0.00%     79.81% # Class of committed instruction (Count)
system.cpus0.commit.committedInstType_0::MatrixMov            0      0.00%     79.81% # Class of committed instruction (Count)
system.cpus0.commit.committedInstType_0::MatrixOP            0      0.00%     79.81% # Class of committed instruction (Count)
system.cpus0.commit.committedInstType_0::MemRead     20577069      7.04%     86.85% # Class of committed instruction (Count)
system.cpus0.commit.committedInstType_0::MemWrite       779589      0.27%     87.12% # Class of committed instruction (Count)
system.cpus0.commit.committedInstType_0::FloatMemRead     35651652     12.21%     99.33% # Class of committed instruction (Count)
system.cpus0.commit.committedInstType_0::FloatMemWrite      1965745      0.67%    100.00% # Class of committed instruction (Count)
system.cpus0.commit.committedInstType_0::InstPrefetch            0      0.00%    100.00% # Class of committed instruction (Count)
system.cpus0.commit.committedInstType_0::SimdUnitStrideLoad            0      0.00%    100.00% # Class of committed instruction (Count)
system.cpus0.commit.committedInstType_0::SimdUnitStrideStore            0      0.00%    100.00% # Class of committed instruction (Count)
system.cpus0.commit.committedInstType_0::SimdUnitStrideMaskLoad            0      0.00%    100.00% # Class of committed instruction (Count)
system.cpus0.commit.committedInstType_0::SimdUnitStrideMaskStore            0      0.00%    100.00% # Class of committed instruction (Count)
system.cpus0.commit.committedInstType_0::SimdStridedLoad            0      0.00%    100.00% # Class of committed instruction (Count)
system.cpus0.commit.committedInstType_0::SimdStridedStore            0      0.00%    100.00% # Class of committed instruction (Count)
system.cpus0.commit.committedInstType_0::SimdIndexedLoad            0      0.00%    100.00% # Class of committed instruction (Count)
system.cpus0.commit.committedInstType_0::SimdIndexedStore            0      0.00%    100.00% # Class of committed instruction (Count)
system.cpus0.commit.committedInstType_0::SimdWholeRegisterLoad            0      0.00%    100.00% # Class of committed instruction (Count)
system.cpus0.commit.committedInstType_0::SimdWholeRegisterStore            0      0.00%    100.00% # Class of committed instruction (Count)
system.cpus0.commit.committedInstType_0::SimdUnitStrideFaultOnlyFirstLoad            0      0.00%    100.00% # Class of committed instruction (Count)
system.cpus0.commit.committedInstType_0::SimdUnitStrideSegmentedLoad            0      0.00%    100.00% # Class of committed instruction (Count)
system.cpus0.commit.committedInstType_0::SimdUnitStrideSegmentedStore            0      0.00%    100.00% # Class of committed instruction (Count)
system.cpus0.commit.committedInstType_0::SimdUnitStrideSegmentedFaultOnlyFirstLoad            0      0.00%    100.00% # Class of committed instruction (Count)
system.cpus0.commit.committedInstType_0::SimdStrideSegmentedLoad            0      0.00%    100.00% # Class of committed instruction (Count)
system.cpus0.commit.committedInstType_0::SimdStrideSegmentedStore            0      0.00%    100.00% # Class of committed instruction (Count)
system.cpus0.commit.committedInstType_0::SimdExt            0      0.00%    100.00% # Class of committed instruction (Count)
[...]
system.membus.pktCount_system.cpus01.l2cache.mem_side_port::system.mem_ctrl0.port            4                       # Packet count per connected requestor and responder (Count)
system.membus.pktCount_system.cpus01.l2cache.mem_side_port::total            4                       # Packet count per connected requestor and responder (Count)
system.membus.pktCount_system.cpus02.l2cache.mem_side_port::system.mem_ctrl0.port            4                       # Packet count per connected requestor and responder (Count)
system.membus.pktCount_system.cpus02.l2cache.mem_side_port::total            4                       # Packet count per connected requestor and responder (Count)
system.membus.pktCount_system.cpus03.l2cache.mem_side_port::system.mem_ctrl0.port            4                       # Packet count per connected requestor and responder (Count)
system.membus.pktCount_system.cpus03.l2cache.mem_side_port::total            4                       # Packet count per connected requestor and responder (Count)
system.membus.pktCount_system.cpus04.l2cache.mem_side_port::system.mem_ctrl0.port            4                       # Packet count per connected requestor and responder (Count)
system.membus.pktCount_system.cpus04.l2cache.mem_side_port::total            4                       # Packet count per connected requestor and responder (Count)
system.membus.pktCount_system.cpus05.l2cache.mem_side_port::system.mem_ctrl0.port            4                       # Packet count per connected requestor and responder (Count)
system.membus.pktCount_system.cpus05.l2cache.mem_side_port::total            4                       # Packet count per connected requestor and responder (Count)
system.membus.pktCount_system.cpus06.l2cache.mem_side_port::system.mem_ctrl0.port            4                       # Packet count per connected requestor and responder (Count)
system.membus.pktCount_system.cpus06.l2cache.mem_side_port::total            4                       # Packet count per connected requestor and responder (Count)
system.membus.pktCount_system.cpus07.l2cache.mem_side_port::system.mem_ctrl0.port            4                       # Packet count per connected requestor and responder (Count)
system.membus.pktCount_system.cpus07.l2cache.mem_side_port::total            4                       # Packet count per connected requestor and responder (Count)
system.membus.pktCount_system.cpus08.l2cache.mem_side_port::system.mem_ctrl0.port        33732                       # Packet count per connected requestor and responder (Count)
system.membus.pktCount_system.cpus08.l2cache.mem_side_port::system.mem_ctrl1.port        90605                       # Packet count per connected requestor and responder (Count)
system.membus.pktCount_system.cpus08.l2cache.mem_side_port::total       124337                       # Packet count per connected requestor and responder (Count)
system.membus.pktCount_system.cpus09.l2cache.mem_side_port::system.mem_ctrl0.port            4                       # Packet count per connected requestor and responder (Count)
system.membus.pktCount_system.cpus09.l2cache.mem_side_port::total            4                       # Packet count per connected requestor and responder (Count)
system.membus.pktCount_system.cpus10.l2cache.mem_side_port::system.mem_ctrl0.port            4                       # Packet count per connected requestor and responder (Count)
system.membus.pktCount_system.cpus10.l2cache.mem_side_port::total            4                       # Packet count per connected requestor and responder (Count)
system.membus.pktCount_system.cpus11.l2cache.mem_side_port::system.mem_ctrl0.port            4                       # Packet count per connected requestor and responder (Count)
system.membus.pktCount_system.cpus11.l2cache.mem_side_port::total            4                       # Packet count per connected requestor and responder (Count)
system.membus.pktCount_system.cpus12.l2cache.mem_side_port::system.mem_ctrl0.port            4                       # Packet count per connected requestor and responder (Count)
system.membus.pktCount_system.cpus12.l2cache.mem_side_port::total            4                       # Packet count per connected requestor and responder (Count)
system.membus.pktCount_system.cpus13.l2cache.mem_side_port::system.mem_ctrl0.port            4                       # Packet count per connected requestor and responder (Count)
system.membus.pktCount_system.cpus13.l2cache.mem_side_port::total            4                       # Packet count per connected requestor and responder (Count)
system.membus.pktCount_system.cpus14.l2cache.mem_side_port::system.mem_ctrl0.port            4                       # Packet count per connected requestor and responder (Count)
system.membus.pktCount_system.cpus14.l2cache.mem_side_port::total            4                       # Packet count per connected requestor and responder (Count)
system.membus.pktCount_system.cpus15.l2cache.mem_side_port::system.mem_ctrl0.port            4                       # Packet count per connected requestor and responder (Count)
system.membus.pktCount_system.cpus15.l2cache.mem_side_port::total            4                       # Packet count per connected requestor and responder (Count)
system.membus.pktCount::total                  259129                       # Packet count per connected requestor and responder (Count)
system.membus.pktSize_system.cpus00.l2cache.mem_side_port::system.mem_ctrl0.port      1438080                       # Cumulative packet size per connected requestor and responder (Byte)
system.membus.pktSize_system.cpus00.l2cache.mem_side_port::system.mem_ctrl1.port        24960                       # Cumulative packet size per connected requestor and responder (Byte)
system.membus.pktSize_system.cpus00.l2cache.mem_side_port::total      1463040                       # Cumulative packet size per connected requestor and responder (Byte)
system.membus.pktSize_system.cpus01.l2cache.mem_side_port::system.mem_ctrl0.port          128                       # Cumulative packet size per connected requestor and responder (Byte)
system.membus.pktSize_system.cpus01.l2cache.mem_side_port::total          128                       # Cumulative packet size per connected requestor and responder (Byte)
system.membus.pktSize_system.cpus02.l2cache.mem_side_port::system.mem_ctrl0.port          128                       # Cumulative packet size per connected requestor and responder (Byte)
system.membus.pktSize_system.cpus02.l2cache.mem_side_port::total          128                       # Cumulative packet size per connected requestor and responder (Byte)
system.membus.pktSize_system.cpus03.l2cache.mem_side_port::system.mem_ctrl0.port          128                       # Cumulative packet size per connected requestor and responder (Byte)
system.membus.pktSize_system.cpus03.l2cache.mem_side_port::total          128                       # Cumulative packet size per connected requestor and responder (Byte)
system.membus.pktSize_system.cpus04.l2cache.mem_side_port::system.mem_ctrl0.port          128                       # Cumulative packet size per connected requestor and responder (Byte)
system.membus.pktSize_system.cpus04.l2cache.mem_side_port::total          128                       # Cumulative packet size per connected requestor and responder (Byte)
system.membus.pktSize_system.cpus05.l2cache.mem_side_port::system.mem_ctrl0.port          128                       # Cumulative packet size per connected requestor and responder (Byte)
system.membus.pktSize_system.cpus05.l2cache.mem_side_port::total          128                       # Cumulative packet size per connected requestor and responder (Byte)
system.membus.pktSize_system.cpus06.l2cache.mem_side_port::system.mem_ctrl0.port          128                       # Cumulative packet size per connected requestor and responder (Byte)
system.membus.pktSize_system.cpus06.l2cache.mem_side_port::total          128                       # Cumulative packet size per connected requestor and responder (Byte)
system.membus.pktSize_system.cpus07.l2cache.mem_side_port::system.mem_ctrl0.port          128                       # Cumulative packet size per connected requestor and responder (Byte)
system.membus.pktSize_system.cpus07.l2cache.mem_side_port::total          128                       # Cumulative packet size per connected requestor and responder (Byte)
system.membus.pktSize_system.cpus08.l2cache.mem_side_port::system.mem_ctrl0.port        45568                       # Cumulative packet size per connected requestor and responder (Byte)
system.membus.pktSize_system.cpus08.l2cache.mem_side_port::system.mem_ctrl1.port      1085376                       # Cumulative packet size per connected requestor and responder (Byte)
system.membus.pktSize_system.cpus08.l2cache.mem_side_port::total      1130944                       # Cumulative packet size per connected requestor and responder (Byte)
system.membus.pktSize_system.cpus09.l2cache.mem_side_port::system.mem_ctrl0.port          128                       # Cumulative packet size per connected requestor and responder (Byte)
system.membus.pktSize_system.cpus09.l2cache.mem_side_port::total          128                       # Cumulative packet size per connected requestor and responder (Byte)
system.membus.pktSize_system.cpus10.l2cache.mem_side_port::system.mem_ctrl0.port          128                       # Cumulative packet size per connected requestor and responder (Byte)
system.membus.pktSize_system.cpus10.l2cache.mem_side_port::total          128                       # Cumulative packet size per connected requestor and responder (Byte)
system.membus.pktSize_system.cpus11.l2cache.mem_side_port::system.mem_ctrl0.port          128                       # Cumulative packet size per connected requestor and responder (Byte)
system.membus.pktSize_system.cpus11.l2cache.mem_side_port::total          128                       # Cumulative packet size per connected requestor and responder (Byte)
system.membus.pktSize_system.cpus12.l2cache.mem_side_port::system.mem_ctrl0.port          128                       # Cumulative packet size per connected requestor and responder (Byte)
system.membus.pktSize_system.cpus12.l2cache.mem_side_port::total          128                       # Cumulative packet size per connected requestor and responder (Byte)
system.membus.pktSize_system.cpus13.l2cache.mem_side_port::system.mem_ctrl0.port          128                       # Cumulative packet size per connected requestor and responder (Byte)
system.membus.pktSize_system.cpus13.l2cache.mem_side_port::total          128                       # Cumulative packet size per connected requestor and responder (Byte)
system.membus.pktSize_system.cpus14.l2cache.mem_side_port::system.mem_ctrl0.port          128                       # Cumulative packet size per connected requestor and responder (Byte)
system.membus.pktSize_system.cpus14.l2cache.mem_side_port::total          128                       # Cumulative packet size per connected requestor and responder (Byte)
system.membus.pktSize_system.cpus15.l2cache.mem_side_port::system.mem_ctrl0.port          128                       # Cumulative packet size per connected requestor and responder (Byte)
system.membus.pktSize_system.cpus15.l2cache.mem_side_port::total          128                       # Cumulative packet size per connected requestor and responder (Byte)
system.membus.pktSize::total                  2595776                       # Cumulative packet size per connected requestor and responder (Byte)
system.membus.snoops                            98967                       # Total snoops (Count)
system.membus.snoopTraffic                    5915904                       # Total snoop traffic (Byte)
system.membus.snoopFanout::samples             218562                       # Request fanout histogram (Count)
system.membus.snoopFanout::mean              0.815828                       # Request fanout histogram (Count)
system.membus.snoopFanout::stdev             0.387625                       # Request fanout histogram (Count)
system.membus.snoopFanout::underflows               0      0.00%      0.00% # Request fanout histogram (Count)
system.membus.snoopFanout::0                    40253     18.42%     18.42% # Request fanout histogram (Count)
system.membus.snoopFanout::1                   178309     81.58%    100.00% # Request fanout histogram (Count)
system.membus.snoopFanout::2                        0      0.00%    100.00% # Request fanout histogram (Count)
system.membus.snoopFanout::3                        0      0.00%    100.00% # Request fanout histogram (Count)
system.membus.snoopFanout::4                        0      0.00%    100.00% # Request fanout histogram (Count)
system.membus.snoopFanout::5                        0      0.00%    100.00% # Request fanout histogram (Count)
system.membus.snoopFanout::6                        0      0.00%    100.00% # Request fanout histogram (Count)
system.membus.snoopFanout::7                        0      0.00%    100.00% # Request fanout histogram (Count)
system.membus.snoopFanout::8                        0      0.00%    100.00% # Request fanout histogram (Count)
system.membus.snoopFanout::9                        0      0.00%    100.00% # Request fanout histogram (Count)
system.membus.snoopFanout::10                       0      0.00%    100.00% # Request fanout histogram (Count)
system.membus.snoopFanout::11                       0      0.00%    100.00% # Request fanout histogram (Count)
system.membus.snoopFanout::12                       0      0.00%    100.00% # Request fanout histogram (Count)
system.membus.snoopFanout::13                       0      0.00%    100.00% # Request fanout histogram (Count)
system.membus.snoopFanout::14                       0      0.00%    100.00% # Request fanout histogram (Count)
system.membus.snoopFanout::15                       0      0.00%    100.00% # Request fanout histogram (Count)
system.membus.snoopFanout::16                       0      0.00%    100.00% # Request fanout histogram (Count)
system.membus.snoopFanout::overflows                0      0.00%    100.00% # Request fanout histogram (Count)
system.membus.snoopFanout::min_value                0                       # Request fanout histogram (Count)
system.membus.snoopFanout::max_value                1                       # Request fanout histogram (Count)
system.membus.snoopFanout::total               218562                       # Request fanout histogram (Count)
system.membus.power_state.pwrStateResidencyTicks::UNDEFINED  14483775250                       # Cumulative time (in ticks) in various power states (Tick)
system.membus.reqLayer32.occupancy          116367502                       # Layer occupancy (ticks) (Tick)
system.membus.reqLayer32.utilization              0.0                       # Layer utilization (Ratio)
system.membus.reqLayer33.occupancy          165657242                       # Layer occupancy (ticks) (Tick)
system.membus.reqLayer33.utilization              0.0                       # Layer utilization (Ratio)
system.membus.respLayer1.occupancy          359052500                       # Layer occupancy (ticks) (Tick)
system.membus.respLayer1.utilization              0.0                       # Layer utilization (Ratio)
system.membus.respLayer13.occupancy             10500                       # Layer occupancy (ticks) (Tick)
system.membus.respLayer13.utilization             0.0                       # Layer utilization (Ratio)
system.membus.respLayer17.occupancy             10750                       # Layer occupancy (ticks) (Tick)
system.membus.respLayer17.utilization             0.0                       # Layer utilization (Ratio)
system.membus.respLayer21.occupancy             11000                       # Layer occupancy (ticks) (Tick)
system.membus.respLayer21.utilization             0.0                       # Layer utilization (Ratio)
system.membus.respLayer25.occupancy             11000                       # Layer occupancy (ticks) (Tick)
system.membus.respLayer25.utilization             0.0                       # Layer utilization (Ratio)
system.membus.respLayer29.occupancy             11000                       # Layer occupancy (ticks) (Tick)
system.membus.respLayer29.utilization             0.0                       # Layer utilization (Ratio)
system.membus.respLayer33.occupancy         338090744                       # Layer occupancy (ticks) (Tick)
system.membus.respLayer33.utilization             0.0                       # Layer utilization (Ratio)
system.membus.respLayer37.occupancy             11000                       # Layer occupancy (ticks) (Tick)
system.membus.respLayer37.utilization             0.0                       # Layer utilization (Ratio)
system.membus.respLayer41.occupancy             11000                       # Layer occupancy (ticks) (Tick)
system.membus.respLayer41.utilization             0.0                       # Layer utilization (Ratio)
system.membus.respLayer45.occupancy             10750                       # Layer occupancy (ticks) (Tick)
system.membus.respLayer45.utilization             0.0                       # Layer utilization (Ratio)
system.membus.respLayer49.occupancy             10250                       # Layer occupancy (ticks) (Tick)
system.membus.respLayer49.utilization             0.0                       # Layer utilization (Ratio)
system.membus.respLayer5.occupancy              10500                       # Layer occupancy (ticks) (Tick)
system.membus.respLayer5.utilization              0.0                       # Layer utilization (Ratio)
system.membus.respLayer53.occupancy             10500                       # Layer occupancy (ticks) (Tick)
system.membus.respLayer53.utilization             0.0                       # Layer utilization (Ratio)
system.membus.respLayer57.occupancy             10500                       # Layer occupancy (ticks) (Tick)
system.membus.respLayer57.utilization             0.0                       # Layer utilization (Ratio)
system.membus.respLayer61.occupancy             10500                       # Layer occupancy (ticks) (Tick)
system.membus.respLayer61.utilization             0.0                       # Layer utilization (Ratio)
system.membus.respLayer9.occupancy              10500                       # Layer occupancy (ticks) (Tick)
system.membus.respLayer9.utilization              0.0                       # Layer utilization (Ratio)
system.membus.snoop_filter.totRequests         218570                       # Total number of requests made to the snoop filter. (Count)
system.membus.snoop_filter.hitSingleRequests        14348                       # Number of requests hitting in the snoop filter with a single holder of the requested data. (Count)
system.membus.snoop_filter.hitMultiRequests       163969                       # Number of requests hitting in the snoop filter with multiple (>1) holders of the requested data. (Count)
system.membus.snoop_filter.totSnoops                0                       # Total number of snoops made to the snoop filter. (Count)
system.membus.snoop_filter.hitSingleSnoops            0                       # Number of snoops hitting in the snoop filter with a single holder of the requested data. (Count)
system.membus.snoop_filter.hitMultiSnoops            0                       # Number of snoops hitting in the snoop filter with multiple (>1) holders of the requested data. (Count)
system.workload.inst.arm                            0                       # number of arm instructions executed (Count)
system.workload.inst.quiesce                        0                       # number of quiesce instructions executed (Count)

---------- End Simulation Statistics   ----------
