
---------- Begin Simulation Statistics ----------
simSeconds                                   0.002544                       # Number of seconds simulated (Second)
simTicks                                   2543978668                       # Number of ticks simulated (Tick)
finalTick                                  2543978668                       # Number of ticks from beginning of simulation (restored from checkpoints and never reset) (Tick)
simFreq                                  1000000000000                       # The number of ticks per simulated second ((Tick/Second))
hostSeconds                                     74.24                       # Real time elapsed on the host (Second)
hostTickRate                                 34268485                       # The number of ticks simulated per host second (ticks/s) ((Tick/Second))
hostMemory                                    4326172                       # Number of bytes of host memory used (Byte)
simInsts                                     24919422                       # Number of instructions simulated (Count)
simOps                                       46347173                       # Number of ops (including micro ops) simulated (Count)
hostInstRate                                   335675                       # Simulator instruction rate (inst/s) ((Count/Second))
hostOpRate                                     624316                       # Simulator op (including micro ops) rate (op/s) ((Count/Second))
system.bridge0.power_state.pwrStateResidencyTicks::UNDEFINED   2543978668                       # Cumulative time (in ticks) in various power states (Tick)
system.bridge1.power_state.pwrStateResidencyTicks::UNDEFINED   2543978668                       # Cumulative time (in ticks) in various power states (Tick)
system.clk_domain.clock                          1000                       # Clock period in ticks (Tick)
system.clk_domain.voltage_domain.voltage            1                       # Voltage in Volts (Volt)
system.node0.cpus0.numCycles                  6436365                       # Number of cpu cycles simulated (Cycle)
system.node0.cpus0.cpi                       1.030796                       # CPI: cycles per instruction (core level) ((Cycle/Count))
system.node0.cpus0.ipc                       0.970124                       # IPC: instructions per cycle (core level) ((Count/Cycle))
system.node0.cpus0.numWorkItemsStarted              0                       # Number of work items this cpu started (Count)
system.node0.cpus0.numWorkItemsCompleted            0                       # Number of work items this cpu completed (Count)
system.node0.cpus0.instsAdded                12376584                       # Number of instructions added to the IQ (excludes non-spec) (Count)
system.node0.cpus0.nonSpecInstsAdded             4866                       # Number of non-speculative instructions added to the IQ (Count)
system.node0.cpus0.instsIssued               12148066                       # Number of instructions issued (Count)
system.node0.cpus0.squashedInstsIssued          17725                       # Number of squashed instructions issued (Count)
system.node0.cpus0.squashedInstsExamined       695310                       # Number of squashed instructions iterated over during squash; mainly for profiling (Count)
system.node0.cpus0.squashedOperandsExamined      1151979                       # Number of squashed operands that are examined and possibly removed from graph (Count)
system.node0.cpus0.squashedNonSpecRemoved         1283                       # Number of squashed non-spec instructions that were removed (Count)
system.node0.cpus0.numIssuedDist::samples      5806759                       # Number of insts issued each cycle (Count)
system.node0.cpus0.numIssuedDist::mean       2.092056                       # Number of insts issued each cycle (Count)
system.node0.cpus0.numIssuedDist::stdev      2.783162                       # Number of insts issued each cycle (Count)
system.node0.cpus0.numIssuedDist::underflows            0      0.00%      0.00% # Number of insts issued each cycle (Count)
system.node0.cpus0.numIssuedDist::0           3263603     56.20%     56.20% # Number of insts issued each cycle (Count)
system.node0.cpus0.numIssuedDist::1            251125      4.32%     60.53% # Number of insts issued each cycle (Count)
system.node0.cpus0.numIssuedDist::2            256240      4.41%     64.94% # Number of insts issued each cycle (Count)
system.node0.cpus0.numIssuedDist::3            265967      4.58%     69.52% # Number of insts issued each cycle (Count)
system.node0.cpus0.numIssuedDist::4            346695      5.97%     75.49% # Number of insts issued each cycle (Count)
system.node0.cpus0.numIssuedDist::5            341514      5.88%     81.37% # Number of insts issued each cycle (Count)
system.node0.cpus0.numIssuedDist::6            413024      7.11%     88.49% # Number of insts issued each cycle (Count)
system.node0.cpus0.numIssuedDist::7            334662      5.76%     94.25% # Number of insts issued each cycle (Count)
system.node0.cpus0.numIssuedDist::8            333929      5.75%    100.00% # Number of insts issued each cycle (Count)
system.node0.cpus0.numIssuedDist::overflows            0      0.00%    100.00% # Number of insts issued each cycle (Count)
system.node0.cpus0.numIssuedDist::min_value            0                       # Number of insts issued each cycle (Count)
system.node0.cpus0.numIssuedDist::max_value            8                       # Number of insts issued each cycle (Count)
system.node0.cpus0.numIssuedDist::total       5806759                       # Number of insts issued each cycle (Count)
system.node0.cpus0.statFuBusy::No_OpClass            0      0.00%      0.00% # attempts to use FU when none available (Count)
system.node0.cpus0.statFuBusy::IntAlu           86611     13.78%     13.78% # attempts to use FU when none available (Count)
system.node0.cpus0.statFuBusy::IntMult              0      0.00%     13.78% # attempts to use FU when none available (Count)
system.node0.cpus0.statFuBusy::IntDiv               0      0.00%     13.78% # attempts to use FU when none available (Count)
system.node0.cpus0.statFuBusy::FloatAdd             0      0.00%     13.78% # attempts to use FU when none available (Count)
system.node0.cpus0.statFuBusy::FloatCmp             0      0.00%     13.78% # attempts to use FU when none available (Count)
system.node0.cpus0.statFuBusy::FloatCvt             0      0.00%     13.78% # attempts to use FU when none available (Count)
system.node0.cpus0.statFuBusy::FloatMult            0      0.00%     13.78% # attempts to use FU when none available (Count)
system.node0.cpus0.statFuBusy::FloatMultAcc            0      0.00%     13.78% # attempts to use FU when none available (Count)
system.node0.cpus0.statFuBusy::FloatDiv             0      0.00%     13.78% # attempts to use FU when none available (Count)
system.node0.cpus0.statFuBusy::FloatMisc            0      0.00%     13.78% # attempts to use FU when none available (Count)
system.node0.cpus0.statFuBusy::FloatSqrt            0      0.00%     13.78% # attempts to use FU when none available (Count)
system.node0.cpus0.statFuBusy::SimdAdd              1      0.00%     13.78% # attempts to use FU when none available (Count)
system.node0.cpus0.statFuBusy::SimdAddAcc            0      0.00%     13.78% # attempts to use FU when none available (Count)
system.node0.cpus0.statFuBusy::SimdAlu           7004      1.11%     14.90% # attempts to use FU when none available (Count)
system.node0.cpus0.statFuBusy::SimdCmp              2      0.00%     14.90% # attempts to use FU when none available (Count)
system.node0.cpus0.statFuBusy::SimdCvt             15      0.00%     14.90% # attempts to use FU when none available (Count)
system.node0.cpus0.statFuBusy::SimdMisc           103      0.02%     14.91% # attempts to use FU when none available (Count)
system.node0.cpus0.statFuBusy::SimdMult             0      0.00%     14.91% # attempts to use FU when none available (Count)
system.node0.cpus0.statFuBusy::SimdMultAcc            0      0.00%     14.91% # attempts to use FU when none available (Count)
system.node0.cpus0.statFuBusy::SimdMatMultAcc            0      0.00%     14.91% # attempts to use FU when none available (Count)
system.node0.cpus0.statFuBusy::SimdShift            3      0.00%     14.91% # attempts to use FU when none available (Count)
system.node0.cpus0.statFuBusy::SimdShiftAcc            0      0.00%     14.91% # attempts to use FU when none available (Count)
system.node0.cpus0.statFuBusy::SimdDiv              0      0.00%     14.91% # attempts to use FU when none available (Count)
system.node0.cpus0.statFuBusy::SimdSqrt             0      0.00%     14.91% # attempts to use FU when none available (Count)
system.node0.cpus0.statFuBusy::SimdFloatAdd        72548     11.54%     26.46% # attempts to use FU when none available (Count)
system.node0.cpus0.statFuBusy::SimdFloatAlu            0      0.00%     26.46% # attempts to use FU when none available (Count)
system.node0.cpus0.statFuBusy::SimdFloatCmp         3786      0.60%     27.06% # attempts to use FU when none available (Count)
system.node0.cpus0.statFuBusy::SimdFloatCvt           85      0.01%     27.07% # attempts to use FU when none available (Count)
system.node0.cpus0.statFuBusy::SimdFloatDiv            0      0.00%     27.07% # attempts to use FU when none available (Count)
system.node0.cpus0.statFuBusy::SimdFloatMisc            0      0.00%     27.07% # attempts to use FU when none available (Count)
system.node0.cpus0.statFuBusy::SimdFloatMult        42464      6.76%     33.83% # attempts to use FU when none available (Count)
system.node0.cpus0.statFuBusy::SimdFloatMultAcc            0      0.00%     33.83% # attempts to use FU when none available (Count)
system.node0.cpus0.statFuBusy::SimdFloatMatMultAcc            0      0.00%     33.83% # attempts to use FU when none available (Count)
system.node0.cpus0.statFuBusy::SimdFloatSqrt            0      0.00%     33.83% # attempts to use FU when none available (Count)
system.node0.cpus0.statFuBusy::SimdReduceAdd            0      0.00%     33.83% # attempts to use FU when none available (Count)
system.node0.cpus0.statFuBusy::SimdReduceAlu            0      0.00%     33.83% # attempts to use FU when none available (Count)
system.node0.cpus0.statFuBusy::SimdReduceCmp            0      0.00%     33.83% # attempts to use FU when none available (Count)
system.node0.cpus0.statFuBusy::SimdFloatReduceAdd            0      0.00%     33.83% # attempts to use FU when none available (Count)
system.node0.cpus0.statFuBusy::SimdFloatReduceCmp            0      0.00%     33.83% # attempts to use FU when none available (Count)
system.node0.cpus0.statFuBusy::SimdAes              0      0.00%     33.83% # attempts to use FU when none available (Count)
system.node0.cpus0.statFuBusy::SimdAesMix            0      0.00%     33.83% # attempts to use FU when none available (Count)
system.node0.cpus0.statFuBusy::SimdSha1Hash            0      0.00%     33.83% # attempts to use FU when none available (Count)
system.node0.cpus0.statFuBusy::SimdSha1Hash2            0      0.00%     33.83% # attempts to use FU when none available (Count)
system.node0.cpus0.statFuBusy::SimdSha256Hash            0      0.00%     33.83% # attempts to use FU when none available (Count)
system.node0.cpus0.statFuBusy::SimdSha256Hash2            0      0.00%     33.83% # attempts to use FU when none available (Count)
system.node0.cpus0.statFuBusy::SimdShaSigma2            0      0.00%     33.83% # attempts to use FU when none available (Count)
system.node0.cpus0.statFuBusy::SimdShaSigma3            0      0.00%     33.83% # attempts to use FU when none available (Count)
system.node0.cpus0.statFuBusy::SimdSha3             0      0.00%     33.83% # attempts to use FU when none available (Count)
system.node0.cpus0.statFuBusy::SimdSm4e             0      0.00%     33.83% # attempts to use FU when none available (Count)
system.node0.cpus0.statFuBusy::SimdCrc              0      0.00%     33.83% # attempts to use FU when none available (Count)
system.node0.cpus0.statFuBusy::SimdPredAlu            0      0.00%     33.83% # attempts to use FU when none available (Count)
system.node0.cpus0.statFuBusy::SimdDotProd            0      0.00%     33.83% # attempts to use FU when none available (Count)
system.node0.cpus0.statFuBusy::Matrix               0      0.00%     33.83% # attempts to use FU when none available (Count)
system.node0.cpus0.statFuBusy::MatrixMov            0      0.00%     33.83% # attempts to use FU when none available (Count)
system.node0.cpus0.statFuBusy::MatrixOP             0      0.00%     33.83% # attempts to use FU when none available (Count)
system.node0.cpus0.statFuBusy::MemRead          16409      2.61%     36.44% # attempts to use FU when none available (Count)
system.node0.cpus0.statFuBusy::MemWrite          3872      0.62%     37.06% # attempts to use FU when none available (Count)
system.node0.cpus0.statFuBusy::FloatMemRead       393459     62.60%     99.66% # attempts to use FU when none available (Count)
system.node0.cpus0.statFuBusy::FloatMemWrite         2136      0.34%    100.00% # attempts to use FU when none available (Count)
system.node0.cpus0.statFuBusy::InstPrefetch            0      0.00%    100.00% # attempts to use FU when none available (Count)
system.node0.cpus0.statFuBusy::SimdUnitStrideLoad            0      0.00%    100.00% # attempts to use FU when none available (Count)
system.node0.cpus0.statFuBusy::SimdUnitStrideStore            0      0.00%    100.00% # attempts to use FU when none available (Count)
system.node0.cpus0.statFuBusy::SimdUnitStrideMaskLoad            0      0.00%    100.00% # attempts to use FU when none available (Count)
system.node0.cpus0.statFuBusy::SimdUnitStrideMaskStore            0      0.00%    100.00% # attempts to use FU when none available (Count)
system.node0.cpus0.statFuBusy::SimdStridedLoad            0      0.00%    100.00% # attempts to use FU when none available (Count)
system.node0.cpus0.statFuBusy::SimdStridedStore            0      0.00%    100.00% # attempts to use FU when none available (Count)
system.node0.cpus0.statFuBusy::SimdIndexedLoad            0      0.00%    100.00% # attempts to use FU when none available (Count)
system.node0.cpus0.statFuBusy::SimdIndexedStore            0      0.00%    100.00% # attempts to use FU when none available (Count)
system.node0.cpus0.statFuBusy::SimdWholeRegisterLoad            0      0.00%    100.00% # attempts to use FU when none available (Count)
system.node0.cpus0.statFuBusy::SimdWholeRegisterStore            0      0.00%    100.00% # attempts to use FU when none available (Count)
system.node0.cpus0.statFuBusy::SimdUnitStrideFaultOnlyFirstLoad            0      0.00%    100.00% # attempts to use FU when none available (Count)
system.node0.cpus0.statFuBusy::SimdUnitStrideSegmentedLoad            0      0.00%    100.00% # attempts to use FU when none available (Count)
system.node0.cpus0.statFuBusy::SimdUnitStrideSegmentedStore            0      0.00%    100.00% # attempts to use FU when none available (Count)
system.node0.cpus0.statFuBusy::SimdUnitStrideSegmentedFaultOnlyFirstLoad            0      0.00%    100.00% # attempts to use FU when none available (Count)
system.node0.cpus0.statFuBusy::SimdStrideSegmentedLoad            0      0.00%    100.00% # attempts to use FU when none available (Count)
system.node0.cpus0.statFuBusy::SimdStrideSegmentedStore            0      0.00%    100.00% # attempts to use FU when none available (Count)
system.node0.cpus0.statFuBusy::SimdExt              0      0.00%    100.00% # attempts to use FU when none available (Count)
system.node0.cpus0.statFuBusy::SimdFloatExt            0      0.00%    100.00% # attempts to use FU when none available (Count)
system.node0.cpus0.statFuBusy::SimdConfig            0      0.00%    100.00% # attempts to use FU when none available (Count)
system.node0.cpus0.statFuBusy::SimdBf16Add            0      0.00%    100.00% # attempts to use FU when none available (Count)
system.node0.cpus0.statFuBusy::SimdBf16Cmp            0      0.00%    100.00% # attempts to use FU when none available (Count)
system.node0.cpus0.statFuBusy::SimdBf16Cvt            0      0.00%    100.00% # attempts to use FU when none available (Count)
system.node0.cpus0.statFuBusy::SimdBf16DotProd            0      0.00%    100.00% # attempts to use FU when none available (Count)
system.node0.cpus0.statFuBusy::SimdBf16MatMultAcc            0      0.00%    100.00% # attempts to use FU when none available (Count)
system.node0.cpus0.statFuBusy::SimdBf16Mult            0      0.00%    100.00% # attempts to use FU when none available (Count)
system.node0.cpus0.statFuBusy::SimdBf16MultAcc            0      0.00%    100.00% # attempts to use FU when none available (Count)
system.node0.cpus0.statFuBusy::Bf16Cvt              0      0.00%    100.00% # attempts to use FU when none available (Count)
system.node0.cpus0.statFuBusy::System               0      0.00%    100.00% # attempts to use FU when none available (Count)
system.node0.cpus0.issuedInstType_0::No_OpClass        36025      0.30%      0.30% # Number of instructions issued per FU type, per thread (Count)
system.node0.cpus0.issuedInstType_0::IntAlu      4717605     38.83%     39.13% # Number of instructions issued per FU type, per thread (Count)
system.node0.cpus0.issuedInstType_0::IntMult        61707      0.51%     39.64% # Number of instructions issued per FU type, per thread (Count)
system.node0.cpus0.issuedInstType_0::IntDiv         4977      0.04%     39.68% # Number of instructions issued per FU type, per thread (Count)
system.node0.cpus0.issuedInstType_0::FloatAdd        80902      0.67%     40.35% # Number of instructions issued per FU type, per thread (Count)
system.node0.cpus0.issuedInstType_0::FloatCmp            0      0.00%     40.35% # Number of instructions issued per FU type, per thread (Count)
system.node0.cpus0.issuedInstType_0::FloatCvt            0      0.00%     40.35% # Number of instructions issued per FU type, per thread (Count)
system.node0.cpus0.issuedInstType_0::FloatMult            0      0.00%     40.35% # Number of instructions issued per FU type, per thread (Count)
system.node0.cpus0.issuedInstType_0::FloatMultAcc            0      0.00%     40.35% # Number of instructions issued per FU type, per thread (Count)
system.node0.cpus0.issuedInstType_0::FloatDiv            0      0.00%     40.35% # Number of instructions issued per FU type, per thread (Count)
system.node0.cpus0.issuedInstType_0::FloatMisc            0      0.00%     40.35% # Number of instructions issued per FU type, per thread (Count)
system.node0.cpus0.issuedInstType_0::FloatSqrt            0      0.00%     40.35% # Number of instructions issued per FU type, per thread (Count)
system.node0.cpus0.issuedInstType_0::SimdAdd          360      0.00%     40.35% # Number of instructions issued per FU type, per thread (Count)
system.node0.cpus0.issuedInstType_0::SimdAddAcc            0      0.00%     40.35% # Number of instructions issued per FU type, per thread (Count)
system.node0.cpus0.issuedInstType_0::SimdAlu        75973      0.63%     40.97% # Number of instructions issued per FU type, per thread (Count)
system.node0.cpus0.issuedInstType_0::SimdCmp           31      0.00%     40.97% # Number of instructions issued per FU type, per thread (Count)
system.node0.cpus0.issuedInstType_0::SimdCvt         1761      0.01%     40.99% # Number of instructions issued per FU type, per thread (Count)
system.node0.cpus0.issuedInstType_0::SimdMisc        44411      0.37%     41.35% # Number of instructions issued per FU type, per thread (Count)
system.node0.cpus0.issuedInstType_0::SimdMult            0      0.00%     41.35% # Number of instructions issued per FU type, per thread (Count)
system.node0.cpus0.issuedInstType_0::SimdMultAcc            0      0.00%     41.35% # Number of instructions issued per FU type, per thread (Count)
system.node0.cpus0.issuedInstType_0::SimdMatMultAcc            0      0.00%     41.35% # Number of instructions issued per FU type, per thread (Count)
system.node0.cpus0.issuedInstType_0::SimdShift         1064      0.01%     41.36% # Number of instructions issued per FU type, per thread (Count)
system.node0.cpus0.issuedInstType_0::SimdShiftAcc            0      0.00%     41.36% # Number of instructions issued per FU type, per thread (Count)
system.node0.cpus0.issuedInstType_0::SimdDiv            0      0.00%     41.36% # Number of instructions issued per FU type, per thread (Count)
system.node0.cpus0.issuedInstType_0::SimdSqrt            0      0.00%     41.36% # Number of instructions issued per FU type, per thread (Count)
system.node0.cpus0.issuedInstType_0::SimdFloatAdd      2206396     18.16%     59.53% # Number of instructions issued per FU type, per thread (Count)
system.node0.cpus0.issuedInstType_0::SimdFloatAlu            0      0.00%     59.53% # Number of instructions issued per FU type, per thread (Count)
system.node0.cpus0.issuedInstType_0::SimdFloatCmp        35617      0.29%     59.82% # Number of instructions issued per FU type, per thread (Count)
system.node0.cpus0.issuedInstType_0::SimdFloatCvt        55565      0.46%     60.28% # Number of instructions issued per FU type, per thread (Count)
system.node0.cpus0.issuedInstType_0::SimdFloatDiv           17      0.00%     60.28% # Number of instructions issued per FU type, per thread (Count)
system.node0.cpus0.issuedInstType_0::SimdFloatMisc            0      0.00%     60.28% # Number of instructions issued per FU type, per thread (Count)
system.node0.cpus0.issuedInstType_0::SimdFloatMult       583005      4.80%     65.08% # Number of instructions issued per FU type, per thread (Count)
system.node0.cpus0.issuedInstType_0::SimdFloatMultAcc            0      0.00%     65.08% # Number of instructions issued per FU type, per thread (Count)
system.node0.cpus0.issuedInstType_0::SimdFloatMatMultAcc            0      0.00%     65.08% # Number of instructions issued per FU type, per thread (Count)
system.node0.cpus0.issuedInstType_0::SimdFloatSqrt            4      0.00%     65.08% # Number of instructions issued per FU type, per thread (Count)
system.node0.cpus0.issuedInstType_0::SimdReduceAdd            0      0.00%     65.08% # Number of instructions issued per FU type, per thread (Count)
system.node0.cpus0.issuedInstType_0::SimdReduceAlu            0      0.00%     65.08% # Number of instructions issued per FU type, per thread (Count)
system.node0.cpus0.issuedInstType_0::SimdReduceCmp            0      0.00%     65.08% # Number of instructions issued per FU type, per thread (Count)
system.node0.cpus0.issuedInstType_0::SimdFloatReduceAdd            0      0.00%     65.08% # Number of instructions issued per FU type, per thread (Count)
system.node0.cpus0.issuedInstType_0::SimdFloatReduceCmp            0      0.00%     65.08% # Number of instructions issued per FU type, per thread (Count)
system.node0.cpus0.issuedInstType_0::SimdAes            0      0.00%     65.08% # Number of instructions issued per FU type, per thread (Count)
system.node0.cpus0.issuedInstType_0::SimdAesMix            0      0.00%     65.08% # Number of instructions issued per FU type, per thread (Count)
system.node0.cpus0.issuedInstType_0::SimdSha1Hash            0      0.00%     65.08% # Number of instructions issued per FU type, per thread (Count)
system.node0.cpus0.issuedInstType_0::SimdSha1Hash2            0      0.00%     65.08% # Number of instructions issued per FU type, per thread (Count)
system.node0.cpus0.issuedInstType_0::SimdSha256Hash            0      0.00%     65.08% # Number of instructions issued per FU type, per thread (Count)
system.node0.cpus0.issuedInstType_0::SimdSha256Hash2            0      0.00%     65.08% # Number of instructions issued per FU type, per thread (Count)
system.node0.cpus0.issuedInstType_0::SimdShaSigma2            0      0.00%     65.08% # Number of instructions issued per FU type, per thread (Count)
system.node0.cpus0.issuedInstType_0::SimdShaSigma3            0      0.00%     65.08% # Number of instructions issued per FU type, per thread (Count)
system.node0.cpus0.issuedInstType_0::SimdSha3            0      0.00%     65.08% # Number of instructions issued per FU type, per thread (Count)
system.node0.cpus0.issuedInstType_0::SimdSm4e            0      0.00%     65.08% # Number of instructions issued per FU type, per thread (Count)
system.node0.cpus0.issuedInstType_0::SimdCrc            0      0.00%     65.08% # Number of instructions issued per FU type, per thread (Count)
system.node0.cpus0.issuedInstType_0::SimdPredAlu            0      0.00%     65.08% # Number of instructions issued per FU type, per thread (Count)
system.node0.cpus0.issuedInstType_0::SimdDotProd            0      0.00%     65.08% # Number of instructions issued per FU type, per thread (Count)
system.node0.cpus0.issuedInstType_0::Matrix            0      0.00%     65.08% # Number of instructions issued per FU type, per thread (Count)
system.node0.cpus0.issuedInstType_0::MatrixMov            0      0.00%     65.08% # Number of instructions issued per FU type, per thread (Count)
system.node0.cpus0.issuedInstType_0::MatrixOP            0      0.00%     65.08% # Number of instructions issued per FU type, per thread (Count)
system.node0.cpus0.issuedInstType_0::MemRead       462261      3.81%     68.88% # Number of instructions issued per FU type, per thread (Count)
system.node0.cpus0.issuedInstType_0::MemWrite       222660      1.83%     70.71% # Number of instructions issued per FU type, per thread (Count)
system.node0.cpus0.issuedInstType_0::FloatMemRead      2813069     23.16%     93.87% # Number of instructions issued per FU type, per thread (Count)
system.node0.cpus0.issuedInstType_0::FloatMemWrite       744656      6.13%    100.00% # Number of instructions issued per FU type, per thread (Count)
system.node0.cpus0.issuedInstType_0::InstPrefetch            0      0.00%    100.00% # Number of instructions issued per FU type, per thread (Count)
system.node0.cpus0.issuedInstType_0::SimdUnitStrideLoad            0      0.00%    100.00% # Number of instructions issued per FU type, per thread (Count)
system.node0.cpus0.issuedInstType_0::SimdUnitStrideStore            0      0.00%    100.00% # Number of instructions issued per FU type, per thread (Count)
system.node0.cpus0.issuedInstType_0::SimdUnitStrideMaskLoad            0      0.00%    100.00% # Number of instructions issued per FU type, per thread (Count)
system.node0.cpus0.issuedInstType_0::SimdUnitStrideMaskStore            0      0.00%    100.00% # Number of instructions issued per FU type, per thread (Count)
system.node0.cpus0.issuedInstType_0::SimdStridedLoad            0      0.00%    100.00% # Number of instructions issued per FU type, per thread (Count)
system.node0.cpus0.issuedInstType_0::SimdStridedStore            0      0.00%    100.00% # Number of instructions issued per FU type, per thread (Count)
system.node0.cpus0.issuedInstType_0::SimdIndexedLoad            0      0.00%    100.00% # Number of instructions issued per FU type, per thread (Count)
system.node0.cpus0.issuedInstType_0::SimdIndexedStore            0      0.00%    100.00% # Number of instructions issued per FU type, per thread (Count)
system.node0.cpus0.issuedInstType_0::SimdWholeRegisterLoad            0      0.00%    100.00% # Number of instructions issued per FU type, per thread (Count)
system.node0.cpus0.issuedInstType_0::SimdWholeRegisterStore            0      0.00%    100.00% # Number of instructions issued per FU type, per thread (Count)
system.node0.cpus0.issuedInstType_0::SimdUnitStrideFaultOnlyFirstLoad            0      0.00%    100.00% # Number of instructions issued per FU type, per thread (Count)
system.node0.cpus0.issuedInstType_0::SimdUnitStrideSegmentedLoad            0      0.00%    100.00% # Number of instructions issued per FU type, per thread (Count)
system.node0.cpus0.issuedInstType_0::SimdUnitStrideSegmentedStore            0      0.00%    100.00% # Number of instructions issued per FU type, per thread (Count)
system.node0.cpus0.issuedInstType_0::SimdUnitStrideSegmentedFaultOnlyFirstLoad            0      0.00%    100.00% # Number of instructions issued per FU type, per thread (Count)
system.node0.cpus0.issuedInstType_0::SimdStrideSegmentedLoad            0      0.00%    100.00% # Number of instructions issued per FU type, per thread (Count)
system.node0.cpus0.issuedInstType_0::SimdStrideSegmentedStore            0      0.00%    100.00% # Number of instructions issued per FU type, per thread (Count)
system.node0.cpus0.issuedInstType_0::SimdExt            0      0.00%    100.00% # Number of instructions issued per FU type, per thread (Count)
system.node0.cpus0.issuedInstType_0::SimdFloatExt            0      0.00%    100.00% # Number of instructions issued per FU type, per thread (Count)
system.node0.cpus0.issuedInstType_0::SimdConfig            0      0.00%    100.00% # Number of instructions issued per FU type, per thread (Count)
system.node0.cpus0.issuedInstType_0::SimdBf16Add            0      0.00%    100.00% # Number of instructions issued per FU type, per thread (Count)
system.node0.cpus0.issuedInstType_0::SimdBf16Cmp            0      0.00%    100.00% # Number of instructions issued per FU type, per thread (Count)
system.node0.cpus0.issuedInstType_0::SimdBf16Cvt            0      0.00%    100.00% # Number of instructions issued per FU type, per thread (Count)
system.node0.cpus0.issuedInstType_0::SimdBf16DotProd            0      0.00%    100.00% # Number of instructions issued per FU type, per thread (Count)
system.node0.cpus0.issuedInstType_0::SimdBf16MatMultAcc            0      0.00%    100.00% # Number of instructions issued per FU type, per thread (Count)
system.node0.cpus0.issuedInstType_0::SimdBf16Mult            0      0.00%    100.00% # Number of instructions issued per FU type, per thread (Count)
system.node0.cpus0.issuedInstType_0::SimdBf16MultAcc            0      0.00%    100.00% # Number of instructions issued per FU type, per thread (Count)
system.node0.cpus0.issuedInstType_0::Bf16Cvt            0      0.00%    100.00% # Number of instructions issued per FU type, per thread (Count)
system.node0.cpus0.issuedInstType_0::System            0      0.00%    100.00% # Number of instructions issued per FU type, per thread (Count)
system.node0.cpus0.issuedInstType_0::total     12148066                       # Number of instructions issued per FU type, per thread (Count)
system.node0.cpus0.issueRate                 1.887411                       # Inst issue rate ((Count/Cycle))
system.node0.cpus0.fuBusy                      628498                       # FU busy when requested (Count)
system.node0.cpus0.fuBusyRate                0.051736                       # FU busy rate (busy events/executed inst) ((Count/Count))
system.node0.cpus0.intInstQueueReads         16023417                       # Number of integer instruction queue reads (Count)
system.node0.cpus0.intInstQueueWrites         5562604                       # Number of integer instruction queue writes (Count)
system.node0.cpus0.intInstQueueWakeupAccesses      4993367                       # Number of integer instruction queue wakeup accesses (Count)
system.node0.cpus0.fpInstQueueReads          14725697                       # Number of floating instruction queue reads (Count)
system.node0.cpus0.fpInstQueueWrites          7514843                       # Number of floating instruction queue writes (Count)
system.node0.cpus0.fpInstQueueWakeupAccesses      7008096                       # Number of floating instruction queue wakeup accesses (Count)
system.node0.cpus0.vecInstQueueReads                0                       # Number of vector instruction queue reads (Count)
system.node0.cpus0.vecInstQueueWrites               0                       # Number of vector instruction queue writes (Count)
system.node0.cpus0.vecInstQueueWakeupAccesses            0                       # Number of vector instruction queue wakeup accesses (Count)
system.node0.cpus0.intAluAccesses             5121747                       # Number of integer alu accesses (Count)
system.node0.cpus0.fpAluAccesses              7618792                       # Number of floating point alu accesses (Count)
system.node0.cpus0.vecAluAccesses                   0                       # Number of vector alu accesses (Count)
system.node0.cpus0.numRecvResp                4129855                       # Number of received responses (Count)
system.node0.cpus0.numRecvRespBytes          32158535                       # Number of received response bytes (Byte)
system.node0.cpus0.recvRespAvgBW                 5.00                       # Average bandwidth of received responses ((Byte/Cycle))
system.node0.cpus0.recvRespAvgSize               7.79                       # Average packet size per received response ((Byte/Count))
system.node0.cpus0.recvRespAvgRate               0.64                       # Average rate of received responses per cycle ((Count/Cycle))
system.node0.cpus0.recvRespAvgRetryRate          0.00                       # Average retry rate per received response ((Count/Count))
system.node0.cpus0.numSendRetryResp                 0                       # Number of retry responses sent (Count)
system.node0.cpus0.numSquashedInsts             85142                       # Number of squashed instructions skipped in execute (Count)
system.node0.cpus0.numSwp                           0                       # Number of swp insts executed (Count)
system.node0.cpus0.timesIdled                    2185                       # Number of times that the entire CPU went into an idle state and unscheduled itself (Count)
system.node0.cpus0.idleCycles                  629606                       # Total number of cycles that the CPU has spent unscheduled due to idling (Cycle)
system.node0.cpus0.quiesceCycles               295106                       # Total number of cycles that CPU has spent quiesced or waiting for an interrupt (Cycle)
system.node0.cpus0.MemDepUnit__0.insertedLoads      3297897                       # Number of loads inserted to the mem dependence unit. (Count)
system.node0.cpus0.MemDepUnit__0.insertedStores       994719                       # Number of stores inserted to the mem dependence unit. (Count)
system.node0.cpus0.MemDepUnit__0.conflictingLoads       214037                       # Number of conflicting loads. (Count)
system.node0.cpus0.MemDepUnit__0.conflictingStores       177374                       # Number of conflicting stores. (Count)
system.node0.cpus0.MemDepUnit__1.insertedLoads            0                       # Number of loads inserted to the mem dependence unit. (Count)
system.node0.cpus0.MemDepUnit__1.insertedStores            0                       # Number of stores inserted to the mem dependence unit. (Count)
system.node0.cpus0.MemDepUnit__1.conflictingLoads            0                       # Number of conflicting loads. (Count)
system.node0.cpus0.MemDepUnit__1.conflictingStores            0                       # Number of conflicting stores. (Count)
system.node0.cpus0.MemDepUnit__2.insertedLoads            0                       # Number of loads inserted to the mem dependence unit. (Count)
system.node0.cpus0.MemDepUnit__2.insertedStores            0                       # Number of stores inserted to the mem dependence unit. (Count)
system.node0.cpus0.MemDepUnit__2.conflictingLoads            0                       # Number of conflicting loads. (Count)
system.node0.cpus0.MemDepUnit__2.conflictingStores            0                       # Number of conflicting stores. (Count)
system.node0.cpus0.MemDepUnit__3.insertedLoads            0                       # Number of loads inserted to the mem dependence unit. (Count)
system.node0.cpus0.MemDepUnit__3.insertedStores            0                       # Number of stores inserted to the mem dependence unit. (Count)
system.node0.cpus0.MemDepUnit__3.conflictingLoads            0                       # Number of conflicting loads. (Count)
system.node0.cpus0.MemDepUnit__3.conflictingStores            0                       # Number of conflicting stores. (Count)
system.node0.cpus0.bac.fetchTargets                 0                       # Number of fetch targets created  (Count)
system.node0.cpus0.bac.branches                660100                       # Number of branches that BAC encountered (Count)
system.node0.cpus0.bac.predTakenBranches       432343                       # Number of branches that BAC predicted taken. (Count)
system.node0.cpus0.bac.branchesNotLastuOp            0                       # Number of branches that fetch encountered which are not the last uOp within a macrooperation. Jump to itself. (Count)
system.node0.cpus0.bac.branchMisspredict        21581                       # Number of mispredicted branches (Count)
system.node0.cpus0.bac.noBranchMisspredict         1472                       # Number of non-branch instructions mispredicted (Count)
system.node0.cpus0.bac.squashBranchDecode         2022                       # Number of branches squashed from decode (Count)
system.node0.cpus0.bac.squashBranchCommit        19559                       # Number of branches squashed from commit (Count)
system.node0.cpus0.bac.preDecUpdate::NoBranch            0                       # Number of branches extracted from the predecoder (Count)
system.node0.cpus0.bac.preDecUpdate::Return            0                       # Number of branches extracted from the predecoder (Count)
system.node0.cpus0.bac.preDecUpdate::CallDirect            0                       # Number of branches extracted from the predecoder (Count)
system.node0.cpus0.bac.preDecUpdate::CallIndirect            0                       # Number of branches extracted from the predecoder (Count)
system.node0.cpus0.bac.preDecUpdate::DirectCond            0                       # Number of branches extracted from the predecoder (Count)
system.node0.cpus0.bac.preDecUpdate::DirectUncond            0                       # Number of branches extracted from the predecoder (Count)
system.node0.cpus0.bac.preDecUpdate::IndirectCond            0                       # Number of branches extracted from the predecoder (Count)
system.node0.cpus0.bac.preDecUpdate::IndirectUncond            0                       # Number of branches extracted from the predecoder (Count)
system.node0.cpus0.bac.preDecUpdate::total            0                       # Number of branches extracted from the predecoder (Count)
system.node0.cpus0.bac.noHistByType::NoBranch            0                       # Number and type of branches that were undetected by the BPU. (Count)
system.node0.cpus0.bac.noHistByType::Return            0                       # Number and type of branches that were undetected by the BPU. (Count)
system.node0.cpus0.bac.noHistByType::CallDirect            0                       # Number and type of branches that were undetected by the BPU. (Count)
system.node0.cpus0.bac.noHistByType::CallIndirect            0                       # Number and type of branches that were undetected by the BPU. (Count)
system.node0.cpus0.bac.noHistByType::DirectCond            0                       # Number and type of branches that were undetected by the BPU. (Count)
system.node0.cpus0.bac.noHistByType::DirectUncond            0                       # Number and type of branches that were undetected by the BPU. (Count)
system.node0.cpus0.bac.noHistByType::IndirectCond            0                       # Number and type of branches that were undetected by the BPU. (Count)
system.node0.cpus0.bac.noHistByType::IndirectUncond            0                       # Number and type of branches that were undetected by the BPU. (Count)
system.node0.cpus0.bac.noHistByType::total            0                       # Number and type of branches that were undetected by the BPU. (Count)
system.node0.cpus0.bac.typeMissmatch                0                       # Number branches where the branch type miss match (Count)
system.node0.cpus0.bac.multiBranchInst              0                       # Number branches because its not the last branch. (Count)
system.node0.cpus0.bac.ftSizeDist::samples            0                       # Number of bytes per fetch target (Count)
system.node0.cpus0.bac.ftSizeDist::mean           nan                       # Number of bytes per fetch target (Count)
system.node0.cpus0.bac.ftSizeDist::stdev          nan                       # Number of bytes per fetch target (Count)
system.node0.cpus0.bac.ftSizeDist::underflows            0                       # Number of bytes per fetch target (Count)
system.node0.cpus0.bac.ftSizeDist::0-3              0                       # Number of bytes per fetch target (Count)
system.node0.cpus0.bac.ftSizeDist::4-7              0                       # Number of bytes per fetch target (Count)
system.node0.cpus0.bac.ftSizeDist::8-11             0                       # Number of bytes per fetch target (Count)
system.node0.cpus0.bac.ftSizeDist::12-15            0                       # Number of bytes per fetch target (Count)
system.node0.cpus0.bac.ftSizeDist::16-19            0                       # Number of bytes per fetch target (Count)
system.node0.cpus0.bac.ftSizeDist::20-23            0                       # Number of bytes per fetch target (Count)
system.node0.cpus0.bac.ftSizeDist::24-27            0                       # Number of bytes per fetch target (Count)
system.node0.cpus0.bac.ftSizeDist::28-31            0                       # Number of bytes per fetch target (Count)
system.node0.cpus0.bac.ftSizeDist::32               0                       # Number of bytes per fetch target (Count)
system.node0.cpus0.bac.ftSizeDist::overflows            0                       # Number of bytes per fetch target (Count)
system.node0.cpus0.bac.ftSizeDist::min_value            0                       # Number of bytes per fetch target (Count)
system.node0.cpus0.bac.ftSizeDist::max_value            0                       # Number of bytes per fetch target (Count)
system.node0.cpus0.bac.ftSizeDist::total            0                       # Number of bytes per fetch target (Count)
system.node0.cpus0.bac.ftNumber::samples            0                       # Number of fetch target inserted to the FTQ per cycle (Count)
system.node0.cpus0.bac.ftNumber::mean             nan                       # Number of fetch target inserted to the FTQ per cycle (Count)
system.node0.cpus0.bac.ftNumber::stdev            nan                       # Number of fetch target inserted to the FTQ per cycle (Count)
system.node0.cpus0.bac.ftNumber::underflows            0                       # Number of fetch target inserted to the FTQ per cycle (Count)
system.node0.cpus0.bac.ftNumber::0                  0                       # Number of fetch target inserted to the FTQ per cycle (Count)
system.node0.cpus0.bac.ftNumber::1                  0                       # Number of fetch target inserted to the FTQ per cycle (Count)
system.node0.cpus0.bac.ftNumber::2                  0                       # Number of fetch target inserted to the FTQ per cycle (Count)
system.node0.cpus0.bac.ftNumber::3                  0                       # Number of fetch target inserted to the FTQ per cycle (Count)
system.node0.cpus0.bac.ftNumber::4                  0                       # Number of fetch target inserted to the FTQ per cycle (Count)
system.node0.cpus0.bac.ftNumber::overflows            0                       # Number of fetch target inserted to the FTQ per cycle (Count)
system.node0.cpus0.bac.ftNumber::min_value            0                       # Number of fetch target inserted to the FTQ per cycle (Count)
system.node0.cpus0.bac.ftNumber::max_value            0                       # Number of fetch target inserted to the FTQ per cycle (Count)
system.node0.cpus0.bac.ftNumber::total              0                       # Number of fetch target inserted to the FTQ per cycle (Count)
system.node0.cpus0.branchPred.lookups_0::NoBranch          437      0.07%      0.07% # Number of BP lookups (Count)
system.node0.cpus0.branchPred.lookups_0::Return        25990      3.94%      4.00% # Number of BP lookups (Count)
system.node0.cpus0.branchPred.lookups_0::CallDirect        25278      3.83%      7.83% # Number of BP lookups (Count)
system.node0.cpus0.branchPred.lookups_0::CallIndirect          936      0.14%      7.97% # Number of BP lookups (Count)
system.node0.cpus0.branchPred.lookups_0::DirectCond       564290     85.49%     93.46% # Number of BP lookups (Count)
system.node0.cpus0.branchPred.lookups_0::DirectUncond        28897      4.38%     97.84% # Number of BP lookups (Count)
system.node0.cpus0.branchPred.lookups_0::IndirectCond            0      0.00%     97.84% # Number of BP lookups (Count)
system.node0.cpus0.branchPred.lookups_0::IndirectUncond        14272      2.16%    100.00% # Number of BP lookups (Count)
system.node0.cpus0.branchPred.lookups_0::total       660100                       # Number of BP lookups (Count)
system.node0.cpus0.branchPred.squashes_0::NoBranch          421      0.45%      0.45% # Number of branches that got squashed (completely removed) as an earlier branch was mispredicted. (Count)
system.node0.cpus0.branchPred.squashes_0::Return         6794      7.21%      7.65% # Number of branches that got squashed (completely removed) as an earlier branch was mispredicted. (Count)
system.node0.cpus0.branchPred.squashes_0::CallDirect         6427      6.82%     14.47% # Number of branches that got squashed (completely removed) as an earlier branch was mispredicted. (Count)
system.node0.cpus0.branchPred.squashes_0::CallIndirect          586      0.62%     15.09% # Number of branches that got squashed (completely removed) as an earlier branch was mispredicted. (Count)
system.node0.cpus0.branchPred.squashes_0::DirectCond        69450     73.67%     88.76% # Number of branches that got squashed (completely removed) as an earlier branch was mispredicted. (Count)
system.node0.cpus0.branchPred.squashes_0::DirectUncond         4913      5.21%     93.97% # Number of branches that got squashed (completely removed) as an earlier branch was mispredicted. (Count)
system.node0.cpus0.branchPred.squashes_0::IndirectCond            0      0.00%     93.97% # Number of branches that got squashed (completely removed) as an earlier branch was mispredicted. (Count)
system.node0.cpus0.branchPred.squashes_0::IndirectUncond         5681      6.03%    100.00% # Number of branches that got squashed (completely removed) as an earlier branch was mispredicted. (Count)
system.node0.cpus0.branchPred.squashes_0::total        94272                       # Number of branches that got squashed (completely removed) as an earlier branch was mispredicted. (Count)
system.node0.cpus0.branchPred.corrected_0::NoBranch           60      0.28%      0.28% # Number of branches that got corrected but not yet commited. Branches get corrected by decode or after execute. Also a branch misprediction can be detected out-of-order. Therefore, a corrected branch might not end up beeing committed in case an even earlier branch was mispredicted (Count)
system.node0.cpus0.branchPred.corrected_0::Return            6      0.03%      0.31% # Number of branches that got corrected but not yet commited. Branches get corrected by decode or after execute. Also a branch misprediction can be detected out-of-order. Therefore, a corrected branch might not end up beeing committed in case an even earlier branch was mispredicted (Count)
system.node0.cpus0.branchPred.corrected_0::CallDirect         1226      5.68%      5.99% # Number of branches that got corrected but not yet commited. Branches get corrected by decode or after execute. Also a branch misprediction can be detected out-of-order. Therefore, a corrected branch might not end up beeing committed in case an even earlier branch was mispredicted (Count)
system.node0.cpus0.branchPred.corrected_0::CallIndirect          172      0.80%      6.78% # Number of branches that got corrected but not yet commited. Branches get corrected by decode or after execute. Also a branch misprediction can be detected out-of-order. Therefore, a corrected branch might not end up beeing committed in case an even earlier branch was mispredicted (Count)
system.node0.cpus0.branchPred.corrected_0::DirectCond        18740     86.84%     93.62% # Number of branches that got corrected but not yet commited. Branches get corrected by decode or after execute. Also a branch misprediction can be detected out-of-order. Therefore, a corrected branch might not end up beeing committed in case an even earlier branch was mispredicted (Count)
system.node0.cpus0.branchPred.corrected_0::DirectUncond          758      3.51%     97.13% # Number of branches that got corrected but not yet commited. Branches get corrected by decode or after execute. Also a branch misprediction can be detected out-of-order. Therefore, a corrected branch might not end up beeing committed in case an even earlier branch was mispredicted (Count)
system.node0.cpus0.branchPred.corrected_0::IndirectCond            0      0.00%     97.13% # Number of branches that got corrected but not yet commited. Branches get corrected by decode or after execute. Also a branch misprediction can be detected out-of-order. Therefore, a corrected branch might not end up beeing committed in case an even earlier branch was mispredicted (Count)
system.node0.cpus0.branchPred.corrected_0::IndirectUncond          619      2.87%    100.00% # Number of branches that got corrected but not yet commited. Branches get corrected by decode or after execute. Also a branch misprediction can be detected out-of-order. Therefore, a corrected branch might not end up beeing committed in case an even earlier branch was mispredicted (Count)
system.node0.cpus0.branchPred.corrected_0::total        21581                       # Number of branches that got corrected but not yet commited. Branches get corrected by decode or after execute. Also a branch misprediction can be detected out-of-order. Therefore, a corrected branch might not end up beeing committed in case an even earlier branch was mispredicted (Count)
system.node0.cpus0.branchPred.earlyResteers_0::NoBranch            0      0.00%      0.00% # Number of branches that got redirected after decode. (Count)
system.node0.cpus0.branchPred.earlyResteers_0::Return            0      0.00%      0.00% # Number of branches that got redirected after decode. (Count)
system.node0.cpus0.branchPred.earlyResteers_0::CallDirect         1226     60.63%     60.63% # Number of branches that got redirected after decode. (Count)
system.node0.cpus0.branchPred.earlyResteers_0::CallIndirect            0      0.00%     60.63% # Number of branches that got redirected after decode. (Count)
system.node0.cpus0.branchPred.earlyResteers_0::DirectCond           38      1.88%     62.51% # Number of branches that got redirected after decode. (Count)
system.node0.cpus0.branchPred.earlyResteers_0::DirectUncond          758     37.49%    100.00% # Number of branches that got redirected after decode. (Count)
system.node0.cpus0.branchPred.earlyResteers_0::IndirectCond            0      0.00%    100.00% # Number of branches that got redirected after decode. (Count)
system.node0.cpus0.branchPred.earlyResteers_0::IndirectUncond            0      0.00%    100.00% # Number of branches that got redirected after decode. (Count)
system.node0.cpus0.branchPred.earlyResteers_0::total         2022                       # Number of branches that got redirected after decode. (Count)
system.node0.cpus0.branchPred.committed_0::NoBranch           16      0.00%      0.00% # Number of branches finally committed  (Count)
system.node0.cpus0.branchPred.committed_0::Return        19196      3.39%      3.40% # Number of branches finally committed  (Count)
system.node0.cpus0.branchPred.committed_0::CallDirect        18851      3.33%      6.73% # Number of branches finally committed  (Count)
system.node0.cpus0.branchPred.committed_0::CallIndirect          350      0.06%      6.79% # Number of branches finally committed  (Count)
system.node0.cpus0.branchPred.committed_0::DirectCond       494840     87.45%     94.24% # Number of branches finally committed  (Count)
system.node0.cpus0.branchPred.committed_0::DirectUncond        23984      4.24%     98.48% # Number of branches finally committed  (Count)
system.node0.cpus0.branchPred.committed_0::IndirectCond            0      0.00%     98.48% # Number of branches finally committed  (Count)
system.node0.cpus0.branchPred.committed_0::IndirectUncond         8591      1.52%    100.00% # Number of branches finally committed  (Count)
system.node0.cpus0.branchPred.committed_0::total       565828                       # Number of branches finally committed  (Count)
system.node0.cpus0.branchPred.mispredicted_0::NoBranch           16      0.08%      0.08% # Number of committed branches that were mispredicted. (Count)
system.node0.cpus0.branchPred.mispredicted_0::Return            0      0.00%      0.08% # Number of committed branches that were mispredicted. (Count)
system.node0.cpus0.branchPred.mispredicted_0::CallDirect          725      3.69%      3.77% # Number of committed branches that were mispredicted. (Count)
system.node0.cpus0.branchPred.mispredicted_0::CallIndirect           94      0.48%      4.25% # Number of committed branches that were mispredicted. (Count)
system.node0.cpus0.branchPred.mispredicted_0::DirectCond        17850     90.76%     95.01% # Number of committed branches that were mispredicted. (Count)
system.node0.cpus0.branchPred.mispredicted_0::DirectUncond          449      2.28%     97.29% # Number of committed branches that were mispredicted. (Count)
system.node0.cpus0.branchPred.mispredicted_0::IndirectCond            0      0.00%     97.29% # Number of committed branches that were mispredicted. (Count)
system.node0.cpus0.branchPred.mispredicted_0::IndirectUncond          533      2.71%    100.00% # Number of committed branches that were mispredicted. (Count)
system.node0.cpus0.branchPred.mispredicted_0::total        19667                       # Number of committed branches that were mispredicted. (Count)
system.node0.cpus0.branchPred.mispredictDueToPredictor_0::NoBranch           16      0.10%      0.10% # Number of committed branches that were mispredicted by the predictor. (Count)
system.node0.cpus0.branchPred.mispredictDueToPredictor_0::Return            0      0.00%      0.10% # Number of committed branches that were mispredicted by the predictor. (Count)
system.node0.cpus0.branchPred.mispredictDueToPredictor_0::CallDirect            0      0.00%      0.10% # Number of committed branches that were mispredicted by the predictor. (Count)
system.node0.cpus0.branchPred.mispredictDueToPredictor_0::CallIndirect            0      0.00%      0.10% # Number of committed branches that were mispredicted by the predictor. (Count)
system.node0.cpus0.branchPred.mispredictDueToPredictor_0::DirectCond        16212     99.90%    100.00% # Number of committed branches that were mispredicted by the predictor. (Count)
system.node0.cpus0.branchPred.mispredictDueToPredictor_0::DirectUncond            0      0.00%    100.00% # Number of committed branches that were mispredicted by the predictor. (Count)
system.node0.cpus0.branchPred.mispredictDueToPredictor_0::IndirectCond            0      0.00%    100.00% # Number of committed branches that were mispredicted by the predictor. (Count)
system.node0.cpus0.branchPred.mispredictDueToPredictor_0::IndirectUncond            0      0.00%    100.00% # Number of committed branches that were mispredicted by the predictor. (Count)
system.node0.cpus0.branchPred.mispredictDueToPredictor_0::total        16228                       # Number of committed branches that were mispredicted by the predictor. (Count)
system.node0.cpus0.branchPred.mispredictDueToBTBMiss_0::NoBranch            0      0.00%      0.00% # Number of committed branches that were mispredicted because of a BTB miss. (Count)
system.node0.cpus0.branchPred.mispredictDueToBTBMiss_0::Return            0      0.00%      0.00% # Number of committed branches that were mispredicted because of a BTB miss. (Count)
system.node0.cpus0.branchPred.mispredictDueToBTBMiss_0::CallDirect          725     21.08%     21.08% # Number of committed branches that were mispredicted because of a BTB miss. (Count)
system.node0.cpus0.branchPred.mispredictDueToBTBMiss_0::CallIndirect           94      2.73%     23.82% # Number of committed branches that were mispredicted because of a BTB miss. (Count)
system.node0.cpus0.branchPred.mispredictDueToBTBMiss_0::DirectCond         1638     47.63%     71.45% # Number of committed branches that were mispredicted because of a BTB miss. (Count)
system.node0.cpus0.branchPred.mispredictDueToBTBMiss_0::DirectUncond          449     13.06%     84.50% # Number of committed branches that were mispredicted because of a BTB miss. (Count)
system.node0.cpus0.branchPred.mispredictDueToBTBMiss_0::IndirectCond            0      0.00%     84.50% # Number of committed branches that were mispredicted because of a BTB miss. (Count)
system.node0.cpus0.branchPred.mispredictDueToBTBMiss_0::IndirectUncond          533     15.50%    100.00% # Number of committed branches that were mispredicted because of a BTB miss. (Count)
system.node0.cpus0.branchPred.mispredictDueToBTBMiss_0::total         3439                       # Number of committed branches that were mispredicted because of a BTB miss. (Count)
system.node0.cpus0.branchPred.targetProvider_0::NoTarget       227757     34.50%     34.50% # The component providing the target for taken branches (Count)
system.node0.cpus0.branchPred.targetProvider_0::BTB       397043     60.15%     94.65% # The component providing the target for taken branches (Count)
system.node0.cpus0.branchPred.targetProvider_0::RAS        25990      3.94%     98.59% # The component providing the target for taken branches (Count)
system.node0.cpus0.branchPred.targetProvider_0::Indirect         9310      1.41%    100.00% # The component providing the target for taken branches (Count)
system.node0.cpus0.branchPred.targetProvider_0::total       660100                       # The component providing the target for taken branches (Count)
system.node0.cpus0.branchPred.targetWrong_0::NoBranch         8449     39.69%     39.69% # Number of branches where the target was incorrect or not available at prediction time. (Count)
system.node0.cpus0.branchPred.targetWrong_0::Return        12676     59.55%     99.24% # Number of branches where the target was incorrect or not available at prediction time. (Count)
system.node0.cpus0.branchPred.targetWrong_0::CallDirect            6      0.03%     99.27% # Number of branches where the target was incorrect or not available at prediction time. (Count)
system.node0.cpus0.branchPred.targetWrong_0::CallIndirect          155      0.73%    100.00% # Number of branches where the target was incorrect or not available at prediction time. (Count)
system.node0.cpus0.branchPred.targetWrong_0::DirectCond            0      0.00%    100.00% # Number of branches where the target was incorrect or not available at prediction time. (Count)
system.node0.cpus0.branchPred.targetWrong_0::DirectUncond            0      0.00%    100.00% # Number of branches where the target was incorrect or not available at prediction time. (Count)
system.node0.cpus0.branchPred.targetWrong_0::IndirectCond            0      0.00%    100.00% # Number of branches where the target was incorrect or not available at prediction time. (Count)
system.node0.cpus0.branchPred.targetWrong_0::IndirectUncond            0      0.00%    100.00% # Number of branches where the target was incorrect or not available at prediction time. (Count)
system.node0.cpus0.branchPred.targetWrong_0::total        21286                       # Number of branches where the target was incorrect or not available at prediction time. (Count)
system.node0.cpus0.branchPred.condPredicted       564290                       # Number of conditional branches predicted (Count)
system.node0.cpus0.branchPred.condPredictedTaken       349605                       # Number of conditional branches predicted as taken (Count)
system.node0.cpus0.branchPred.condIncorrect        19667                       # Number of conditional branches incorrect (Count)
system.node0.cpus0.branchPred.predTakenBTBMiss         2855                       # Number of branches predicted taken but missed in BTB (Count)
system.node0.cpus0.branchPred.BTBLookups       660100                       # Number of BTB lookups (Count)
system.node0.cpus0.branchPred.BTBUpdates         8016                       # Number of BTB updates (Count)
system.node0.cpus0.branchPred.BTBHits          485806                       # Number of BTB hits (Count)
system.node0.cpus0.branchPred.BTBHitRatio     0.735958                       # BTB Hit Ratio (Ratio)
system.node0.cpus0.branchPred.BTBMispredicted         3856                       # Number BTB mispredictions. No target found or target wrong (Count)
system.node0.cpus0.branchPred.indirectLookups        15208                       # Number of indirect predictor lookups. (Count)
system.node0.cpus0.branchPred.indirectHits         9310                       # Number of indirect target hits. (Count)
system.node0.cpus0.branchPred.indirectMisses         5898                       # Number of indirect misses. (Count)
system.node0.cpus0.branchPred.indirectMispredicted            0                       # Number of mispredicted indirect branches. (Count)
system.node0.cpus0.branchPred.btb.lookups::NoBranch          437      0.07%      0.07% # Number of BTB lookups (Count)
system.node0.cpus0.branchPred.btb.lookups::Return        25990      3.94%      4.00% # Number of BTB lookups (Count)
system.node0.cpus0.branchPred.btb.lookups::CallDirect        25278      3.83%      7.83% # Number of BTB lookups (Count)
system.node0.cpus0.branchPred.btb.lookups::CallIndirect          936      0.14%      7.97% # Number of BTB lookups (Count)
system.node0.cpus0.branchPred.btb.lookups::DirectCond       564290     85.49%     93.46% # Number of BTB lookups (Count)
system.node0.cpus0.branchPred.btb.lookups::DirectUncond        28897      4.38%     97.84% # Number of BTB lookups (Count)
system.node0.cpus0.branchPred.btb.lookups::IndirectCond            0      0.00%     97.84% # Number of BTB lookups (Count)
system.node0.cpus0.branchPred.btb.lookups::IndirectUncond        14272      2.16%    100.00% # Number of BTB lookups (Count)
system.node0.cpus0.branchPred.btb.lookups::total       660100                       # Number of BTB lookups (Count)
system.node0.cpus0.branchPred.btb.misses::NoBranch           88      0.05%      0.05% # Number of BTB misses (Count)
system.node0.cpus0.branchPred.btb.misses::Return        25990     14.91%     14.96% # Number of BTB misses (Count)
system.node0.cpus0.branchPred.btb.misses::CallDirect         1806      1.04%     16.00% # Number of BTB misses (Count)
system.node0.cpus0.branchPred.btb.misses::CallIndirect          936      0.54%     16.54% # Number of BTB misses (Count)
system.node0.cpus0.branchPred.btb.misses::DirectCond       130117     74.65%     91.19% # Number of BTB misses (Count)
system.node0.cpus0.branchPred.btb.misses::DirectUncond         1085      0.62%     91.81% # Number of BTB misses (Count)
system.node0.cpus0.branchPred.btb.misses::IndirectCond            0      0.00%     91.81% # Number of BTB misses (Count)
system.node0.cpus0.branchPred.btb.misses::IndirectUncond        14272      8.19%    100.00% # Number of BTB misses (Count)
system.node0.cpus0.branchPred.btb.misses::total       174294                       # Number of BTB misses (Count)
system.node0.cpus0.branchPred.btb.updates::NoBranch           60      0.75%      0.75% # Number of BTB updates (Count)
system.node0.cpus0.branchPred.btb.updates::Return            0      0.00%      0.75% # Number of BTB updates (Count)
system.node0.cpus0.branchPred.btb.updates::CallDirect         1226     15.29%     16.04% # Number of BTB updates (Count)
system.node0.cpus0.branchPred.btb.updates::CallIndirect            0      0.00%     16.04% # Number of BTB updates (Count)
system.node0.cpus0.branchPred.btb.updates::DirectCond         5972     74.50%     90.54% # Number of BTB updates (Count)
system.node0.cpus0.branchPred.btb.updates::DirectUncond          758      9.46%    100.00% # Number of BTB updates (Count)
system.node0.cpus0.branchPred.btb.updates::IndirectCond            0      0.00%    100.00% # Number of BTB updates (Count)
system.node0.cpus0.branchPred.btb.updates::IndirectUncond            0      0.00%    100.00% # Number of BTB updates (Count)
system.node0.cpus0.branchPred.btb.updates::total         8016                       # Number of BTB updates (Count)
system.node0.cpus0.branchPred.btb.mispredict::NoBranch           60      0.75%      0.75% # Number of BTB mispredictions. No target found or target wrong. (Count)
system.node0.cpus0.branchPred.btb.mispredict::Return            0      0.00%      0.75% # Number of BTB mispredictions. No target found or target wrong. (Count)
system.node0.cpus0.branchPred.btb.mispredict::CallDirect         1226     15.29%     16.04% # Number of BTB mispredictions. No target found or target wrong. (Count)
system.node0.cpus0.branchPred.btb.mispredict::CallIndirect            0      0.00%     16.04% # Number of BTB mispredictions. No target found or target wrong. (Count)
system.node0.cpus0.branchPred.btb.mispredict::DirectCond         5972     74.50%     90.54% # Number of BTB mispredictions. No target found or target wrong. (Count)
system.node0.cpus0.branchPred.btb.mispredict::DirectUncond          758      9.46%    100.00% # Number of BTB mispredictions. No target found or target wrong. (Count)
system.node0.cpus0.branchPred.btb.mispredict::IndirectCond            0      0.00%    100.00% # Number of BTB mispredictions. No target found or target wrong. (Count)
system.node0.cpus0.branchPred.btb.mispredict::IndirectUncond            0      0.00%    100.00% # Number of BTB mispredictions. No target found or target wrong. (Count)
system.node0.cpus0.branchPred.btb.mispredict::total         8016                       # Number of BTB mispredictions. No target found or target wrong. (Count)
system.node0.cpus0.branchPred.btb.power_state.pwrStateResidencyTicks::UNDEFINED   2543978668                       # Cumulative time (in ticks) in various power states (Tick)
system.node0.cpus0.branchPred.indirectBranchPred.lookups        15208                       # Number of lookups (Count)
system.node0.cpus0.branchPred.indirectBranchPred.hits         9310                       # Number of hits of a tag (Count)
system.node0.cpus0.branchPred.indirectBranchPred.misses         5898                       # Number of misses (Count)
system.node0.cpus0.branchPred.indirectBranchPred.targetRecords          791                       # Number of targets that where recorded/installed in the cache (Count)
system.node0.cpus0.branchPred.indirectBranchPred.indirectRecords        15999                       # Number of indirect branches/calls recorded in the indirect hist (Count)
system.node0.cpus0.branchPred.indirectBranchPred.speculativeOverflows           11                       # Number of times more than the allowed capacity for speculative branches/calls where in flight and destroy the path history (Count)
system.node0.cpus0.branchPred.ras.pushes        33008                       # Number of times a PC was pushed onto the RAS (Count)
system.node0.cpus0.branchPred.ras.pops          33003                       # Number of times a PC was poped from the RAS (Count)
system.node0.cpus0.branchPred.ras.squashes        13807                       # Number of times the stack operation was squashed due to wrong speculation. (Count)
system.node0.cpus0.branchPred.ras.used          19196                       # Number of times the RAS is the provider (Count)
system.node0.cpus0.branchPred.ras.correct        19196                       # Number of times the RAS is the provider and the prediction is correct (Count)
system.node0.cpus0.branchPred.ras.incorrect            0                       # Number of times the RAS is the provider and the prediction is wrong (Count)
system.node0.cpus0.clk_domain.clock               200                       # Clock period in ticks (Tick)
system.node0.cpus0.clk_domain.voltage_domain.voltage            1                       # Voltage in Volts (Volt)
system.node0.cpus0.commit.status::running      5799519     99.88%     99.88% # Number of cycles commit is running (Cycle)
system.node0.cpus0.commit.status::idle              1      0.00%     99.88% # Number of cycles commit is idle (Cycle)
system.node0.cpus0.commit.status::trapPending         7239      0.12%    100.00% # Number of cycles commit is processing a trap (Cycle)
system.node0.cpus0.commit.commitSquashedInsts       692662                       # The number of squashed insts skipped by commit (Count)
system.node0.cpus0.commit.commitNonSpecStalls         3583                       # The number of times commit has been forced to stall to communicate backwards (Count)
system.node0.cpus0.commit.branchMispredicts        19626                       # The number of times a branch was mispredicted (Count)
system.node0.cpus0.commit.numCommittedDist::samples      5785728                       # Number of insts commited each cycle (Count)
system.node0.cpus0.commit.numCommittedDist::mean     2.019822                       # Number of insts commited each cycle (Count)
system.node0.cpus0.commit.numCommittedDist::stdev     3.122425                       # Number of insts commited each cycle (Count)
system.node0.cpus0.commit.numCommittedDist::underflows            0      0.00%      0.00% # Number of insts commited each cycle (Count)
system.node0.cpus0.commit.numCommittedDist::0      3589123     62.03%     62.03% # Number of insts commited each cycle (Count)
system.node0.cpus0.commit.numCommittedDist::1       311331      5.38%     67.42% # Number of insts commited each cycle (Count)
system.node0.cpus0.commit.numCommittedDist::2       322677      5.58%     72.99% # Number of insts commited each cycle (Count)
system.node0.cpus0.commit.numCommittedDist::3       129944      2.25%     75.24% # Number of insts commited each cycle (Count)
system.node0.cpus0.commit.numCommittedDist::4       118374      2.05%     77.28% # Number of insts commited each cycle (Count)
system.node0.cpus0.commit.numCommittedDist::5       120775      2.09%     79.37% # Number of insts commited each cycle (Count)
system.node0.cpus0.commit.numCommittedDist::6       114824      1.98%     81.36% # Number of insts commited each cycle (Count)
system.node0.cpus0.commit.numCommittedDist::7        56132      0.97%     82.33% # Number of insts commited each cycle (Count)
system.node0.cpus0.commit.numCommittedDist::8      1022548     17.67%    100.00% # Number of insts commited each cycle (Count)
system.node0.cpus0.commit.numCommittedDist::overflows            0      0.00%    100.00% # Number of insts commited each cycle (Count)
system.node0.cpus0.commit.numCommittedDist::min_value            0                       # Number of insts commited each cycle (Count)
system.node0.cpus0.commit.numCommittedDist::max_value            8                       # Number of insts commited each cycle (Count)
system.node0.cpus0.commit.numCommittedDist::total      5785728                       # Number of insts commited each cycle (Count)
system.node0.cpus0.commit.amos                      0                       # Number of atomic instructions committed (Count)
system.node0.cpus0.commit.membars                2366                       # Number of memory barriers committed (Count)
system.node0.cpus0.commit.committedInstType_0::No_OpClass        31717      0.27%      0.27% # Class of committed instruction (Count)
system.node0.cpus0.commit.committedInstType_0::IntAlu      4472011     38.27%     38.54% # Class of committed instruction (Count)
system.node0.cpus0.commit.committedInstType_0::IntMult        60676      0.52%     39.06% # Class of committed instruction (Count)
system.node0.cpus0.commit.committedInstType_0::IntDiv         3267      0.03%     39.09% # Class of committed instruction (Count)
system.node0.cpus0.commit.committedInstType_0::FloatAdd        75725      0.65%     39.73% # Class of committed instruction (Count)
system.node0.cpus0.commit.committedInstType_0::FloatCmp            0      0.00%     39.73% # Class of committed instruction (Count)
system.node0.cpus0.commit.committedInstType_0::FloatCvt            0      0.00%     39.73% # Class of committed instruction (Count)
system.node0.cpus0.commit.committedInstType_0::FloatMult            0      0.00%     39.73% # Class of committed instruction (Count)
system.node0.cpus0.commit.committedInstType_0::FloatMultAcc            0      0.00%     39.73% # Class of committed instruction (Count)
system.node0.cpus0.commit.committedInstType_0::FloatDiv            0      0.00%     39.73% # Class of committed instruction (Count)
system.node0.cpus0.commit.committedInstType_0::FloatMisc            0      0.00%     39.73% # Class of committed instruction (Count)
system.node0.cpus0.commit.committedInstType_0::FloatSqrt            0      0.00%     39.73% # Class of committed instruction (Count)
system.node0.cpus0.commit.committedInstType_0::SimdAdd          272      0.00%     39.74% # Class of committed instruction (Count)
system.node0.cpus0.commit.committedInstType_0::SimdAddAcc            0      0.00%     39.74% # Class of committed instruction (Count)
system.node0.cpus0.commit.committedInstType_0::SimdAlu        72884      0.62%     40.36% # Class of committed instruction (Count)
system.node0.cpus0.commit.committedInstType_0::SimdCmp           16      0.00%     40.36% # Class of committed instruction (Count)
system.node0.cpus0.commit.committedInstType_0::SimdCvt         1370      0.01%     40.37% # Class of committed instruction (Count)
system.node0.cpus0.commit.committedInstType_0::SimdMisc        43268      0.37%     40.74% # Class of committed instruction (Count)
system.node0.cpus0.commit.committedInstType_0::SimdMult            0      0.00%     40.74% # Class of committed instruction (Count)
system.node0.cpus0.commit.committedInstType_0::SimdMultAcc            0      0.00%     40.74% # Class of committed instruction (Count)
system.node0.cpus0.commit.committedInstType_0::SimdMatMultAcc            0      0.00%     40.74% # Class of committed instruction (Count)
system.node0.cpus0.commit.committedInstType_0::SimdShift          918      0.01%     40.75% # Class of committed instruction (Count)
system.node0.cpus0.commit.committedInstType_0::SimdShiftAcc            0      0.00%     40.75% # Class of committed instruction (Count)
system.node0.cpus0.commit.committedInstType_0::SimdDiv            0      0.00%     40.75% # Class of committed instruction (Count)
system.node0.cpus0.commit.committedInstType_0::SimdSqrt            0      0.00%     40.75% # Class of committed instruction (Count)
system.node0.cpus0.commit.committedInstType_0::SimdFloatAdd      2192953     18.77%     59.52% # Class of committed instruction (Count)
system.node0.cpus0.commit.committedInstType_0::SimdFloatAlu            0      0.00%     59.52% # Class of committed instruction (Count)
system.node0.cpus0.commit.committedInstType_0::SimdFloatCmp        34820      0.30%     59.81% # Class of committed instruction (Count)
system.node0.cpus0.commit.committedInstType_0::SimdFloatCvt        53794      0.46%     60.27% # Class of committed instruction (Count)
system.node0.cpus0.commit.committedInstType_0::SimdFloatDiv           11      0.00%     60.27% # Class of committed instruction (Count)
system.node0.cpus0.commit.committedInstType_0::SimdFloatMisc            0      0.00%     60.27% # Class of committed instruction (Count)
system.node0.cpus0.commit.committedInstType_0::SimdFloatMult       577633      4.94%     65.22% # Class of committed instruction (Count)
system.node0.cpus0.commit.committedInstType_0::SimdFloatMultAcc            0      0.00%     65.22% # Class of committed instruction (Count)
system.node0.cpus0.commit.committedInstType_0::SimdFloatMatMultAcc            0      0.00%     65.22% # Class of committed instruction (Count)
system.node0.cpus0.commit.committedInstType_0::SimdFloatSqrt            4      0.00%     65.22% # Class of committed instruction (Count)
system.node0.cpus0.commit.committedInstType_0::SimdReduceAdd            0      0.00%     65.22% # Class of committed instruction (Count)
system.node0.cpus0.commit.committedInstType_0::SimdReduceAlu            0      0.00%     65.22% # Class of committed instruction (Count)
system.node0.cpus0.commit.committedInstType_0::SimdReduceCmp            0      0.00%     65.22% # Class of committed instruction (Count)
system.node0.cpus0.commit.committedInstType_0::SimdFloatReduceAdd            0      0.00%     65.22% # Class of committed instruction (Count)
system.node0.cpus0.commit.committedInstType_0::SimdFloatReduceCmp            0      0.00%     65.22% # Class of committed instruction (Count)
system.node0.cpus0.commit.committedInstType_0::SimdAes            0      0.00%     65.22% # Class of committed instruction (Count)
system.node0.cpus0.commit.committedInstType_0::SimdAesMix            0      0.00%     65.22% # Class of committed instruction (Count)
system.node0.cpus0.commit.committedInstType_0::SimdSha1Hash            0      0.00%     65.22% # Class of committed instruction (Count)
system.node0.cpus0.commit.committedInstType_0::SimdSha1Hash2            0      0.00%     65.22% # Class of committed instruction (Count)
system.node0.cpus0.commit.committedInstType_0::SimdSha256Hash            0      0.00%     65.22% # Class of committed instruction (Count)
system.node0.cpus0.commit.committedInstType_0::SimdSha256Hash2            0      0.00%     65.22% # Class of committed instruction (Count)
system.node0.cpus0.commit.committedInstType_0::SimdShaSigma2            0      0.00%     65.22% # Class of committed instruction (Count)
system.node0.cpus0.commit.committedInstType_0::SimdShaSigma3            0      0.00%     65.22% # Class of committed instruction (Count)
system.node0.cpus0.commit.committedInstType_0::SimdSha3            0      0.00%     65.22% # Class of committed instruction (Count)
system.node0.cpus0.commit.committedInstType_0::SimdSm4e            0      0.00%     65.22% # Class of committed instruction (Count)
system.node0.cpus0.commit.committedInstType_0::SimdCrc            0      0.00%     65.22% # Class of committed instruction (Count)
system.node0.cpus0.commit.committedInstType_0::SimdPredAlu            0      0.00%     65.22% # Class of committed instruction (Count)
system.node0.cpus0.commit.committedInstType_0::SimdDotProd            0      0.00%     65.22% # Class of committed instruction (Count)
system.node0.cpus0.commit.committedInstType_0::Matrix            0      0.00%     65.22% # Class of committed instruction (Count)
system.node0.cpus0.commit.committedInstType_0::MatrixMov            0      0.00%     65.22% # Class of committed instruction (Count)
system.node0.cpus0.commit.committedInstType_0::MatrixOP            0      0.00%     65.22% # Class of committed instruction (Count)
system.node0.cpus0.commit.committedInstType_0::MemRead       418005      3.58%     68.79% # Class of committed instruction (Count)
system.node0.cpus0.commit.committedInstType_0::MemWrite       207864      1.78%     70.57% # Class of committed instruction (Count)
[...]
system.node1.mem_ctrl.avgRdBWSys           0.00000000                       # Average system read bandwidth in Byte/s ((Byte/Second))
system.node1.mem_ctrl.avgWrBWSys           0.00000000                       # Average system write bandwidth in Byte/s ((Byte/Second))
system.node1.mem_ctrl.totGap                        0                       # Total gap between requests (Tick)
system.node1.mem_ctrl.avgGap                      nan                       # Average gap between requests ((Tick/Count))
system.node1.mem_ctrl.dram.readBursts               0                       # Number of DRAM read bursts (Count)
system.node1.mem_ctrl.dram.writeBursts              0                       # Number of DRAM write bursts (Count)
system.node1.mem_ctrl.dram.perBankRdBursts::0            0                       # Per bank write bursts (Count)
system.node1.mem_ctrl.dram.perBankRdBursts::1            0                       # Per bank write bursts (Count)
system.node1.mem_ctrl.dram.perBankRdBursts::2            0                       # Per bank write bursts (Count)
system.node1.mem_ctrl.dram.perBankRdBursts::3            0                       # Per bank write bursts (Count)
system.node1.mem_ctrl.dram.perBankRdBursts::4            0                       # Per bank write bursts (Count)
system.node1.mem_ctrl.dram.perBankRdBursts::5            0                       # Per bank write bursts (Count)
system.node1.mem_ctrl.dram.perBankRdBursts::6            0                       # Per bank write bursts (Count)
system.node1.mem_ctrl.dram.perBankRdBursts::7            0                       # Per bank write bursts (Count)
system.node1.mem_ctrl.dram.perBankWrBursts::0            0                       # Per bank write bursts (Count)
system.node1.mem_ctrl.dram.perBankWrBursts::1            0                       # Per bank write bursts (Count)
system.node1.mem_ctrl.dram.perBankWrBursts::2            0                       # Per bank write bursts (Count)
system.node1.mem_ctrl.dram.perBankWrBursts::3            0                       # Per bank write bursts (Count)
system.node1.mem_ctrl.dram.perBankWrBursts::4            0                       # Per bank write bursts (Count)
system.node1.mem_ctrl.dram.perBankWrBursts::5            0                       # Per bank write bursts (Count)
system.node1.mem_ctrl.dram.perBankWrBursts::6            0                       # Per bank write bursts (Count)
system.node1.mem_ctrl.dram.perBankWrBursts::7            0                       # Per bank write bursts (Count)
system.node1.mem_ctrl.dram.totQLat                  0                       # Total ticks spent queuing (Tick)
system.node1.mem_ctrl.dram.totBusLat                0                       # Total ticks spent in databus transfers (Tick)
system.node1.mem_ctrl.dram.totMemAccLat             0                       # Total ticks spent from burst creation until serviced by the DRAM (Tick)
system.node1.mem_ctrl.dram.avgQLat                nan                       # Average queueing delay per DRAM burst ((Tick/Count))
system.node1.mem_ctrl.dram.avgBusLat              nan                       # Average bus latency per DRAM burst ((Tick/Count))
system.node1.mem_ctrl.dram.avgMemAccLat           nan                       # Average memory access latency per DRAM burst ((Tick/Count))
system.node1.mem_ctrl.dram.readRowHits              0                       # Number of row buffer hits during reads (Count)
system.node1.mem_ctrl.dram.writeRowHits             0                       # Number of row buffer hits during writes (Count)
system.node1.mem_ctrl.dram.readRowHitRate          nan                       # Row buffer hit rate for reads (Ratio)
system.node1.mem_ctrl.dram.writeRowHitRate          nan                       # Row buffer hit rate for writes (Ratio)
system.node1.mem_ctrl.dram.dramBytesRead            0                       # Total bytes read (Byte)
system.node1.mem_ctrl.dram.dramBytesWritten            0                       # Total bytes written (Byte)
system.node1.mem_ctrl.dram.avgRdBW                  0                       # Average DRAM read bandwidth in MiBytes/s ((Byte/Second))
system.node1.mem_ctrl.dram.avgWrBW                  0                       # Average DRAM write bandwidth in MiBytes/s ((Byte/Second))
system.node1.mem_ctrl.dram.peakBW            12800.00                       # Theoretical peak bandwidth in MiByte/s ((Byte/Second))
system.node1.mem_ctrl.dram.busUtil               0.00                       # Data bus utilization in percentage (Ratio)
system.node1.mem_ctrl.dram.busUtilRead           0.00                       # Data bus utilization in percentage for reads (Ratio)
system.node1.mem_ctrl.dram.busUtilWrite          0.00                       # Data bus utilization in percentage for writes (Ratio)
system.node1.mem_ctrl.dram.pageHitRate            nan                       # Row buffer hit rate, read and write combined (Ratio)
system.node1.mem_ctrl.dram.power_state.pwrStateResidencyTicks::UNDEFINED   2543978668                       # Cumulative time (in ticks) in various power states (Tick)
system.node1.mem_ctrl.dram.rank0.actEnergy            0                       # Energy for activate commands per rank (pJ) (Joule)
system.node1.mem_ctrl.dram.rank0.preEnergy            0                       # Energy for precharge commands per rank (pJ) (Joule)
system.node1.mem_ctrl.dram.rank0.readEnergy            0                       # Energy for read commands per rank (pJ) (Joule)
system.node1.mem_ctrl.dram.rank0.writeEnergy            0                       # Energy for write commands per rank (pJ) (Joule)
system.node1.mem_ctrl.dram.rank0.refreshEnergy 200372640.000000                       # Energy for refresh commands per rank (pJ) (Joule)
system.node1.mem_ctrl.dram.rank0.actBackEnergy     36606540                       # Energy for active background per rank (pJ) (Joule)
system.node1.mem_ctrl.dram.rank0.preBackEnergy    946061280                       # Energy for precharge background per rank (pJ) (Joule)
system.node1.mem_ctrl.dram.rank0.actPowerDownEnergy            0                       # Energy for active power-down per rank (pJ) (Joule)
system.node1.mem_ctrl.dram.rank0.prePowerDownEnergy            0                       # Energy for precharge power-down per rank (pJ) (Joule)
system.node1.mem_ctrl.dram.rank0.selfRefreshEnergy            0                       # Energy for self refresh per rank (pJ) (Joule)
system.node1.mem_ctrl.dram.rank0.totalEnergy   1183040460                       # Total energy per rank (pJ) (Joule)
system.node1.mem_ctrl.dram.rank0.averagePower   465.035527                       # Core power per rank (mW) (Watt)
system.node1.mem_ctrl.dram.rank0.totalIdleTime            0                       # Total Idle time Per DRAM Rank (Tick)
system.node1.mem_ctrl.dram.rank0.pwrStateTime::IDLE   2459218668                       # Time in different power states (Tick)
system.node1.mem_ctrl.dram.rank0.pwrStateTime::REF     84760000                       # Time in different power states (Tick)
system.node1.mem_ctrl.dram.rank0.pwrStateTime::SREF            0                       # Time in different power states (Tick)
system.node1.mem_ctrl.dram.rank0.pwrStateTime::PRE_PDN            0                       # Time in different power states (Tick)
system.node1.mem_ctrl.dram.rank0.pwrStateTime::ACT            0                       # Time in different power states (Tick)
system.node1.mem_ctrl.dram.rank0.pwrStateTime::ACT_PDN            0                       # Time in different power states (Tick)
system.node1.mem_ctrl.power_state.pwrStateResidencyTicks::UNDEFINED   2543978668                       # Cumulative time (in ticks) in various power states (Tick)
system.node1.xbar.transDist::ReadResp           11100                       # Transaction distribution (Count)
system.node1.xbar.transDist::ReadExReq           1384                       # Transaction distribution (Count)
system.node1.xbar.transDist::ReadExResp          1384                       # Transaction distribution (Count)
system.node1.xbar.transDist::ReadSharedReq        11100                       # Transaction distribution (Count)
system.node1.xbar.pktCount_system.node1.cpus0.l2cache.mem_side_port::system.bridge1.cpu_side_port         3122                       # Packet count per connected requestor and responder (Count)
system.node1.xbar.pktCount_system.node1.cpus0.l2cache.mem_side_port::total         3122                       # Packet count per connected requestor and responder (Count)
system.node1.xbar.pktCount_system.node1.cpus1.l2cache.mem_side_port::system.bridge1.cpu_side_port         3120                       # Packet count per connected requestor and responder (Count)
system.node1.xbar.pktCount_system.node1.cpus1.l2cache.mem_side_port::total         3120                       # Packet count per connected requestor and responder (Count)
system.node1.xbar.pktCount_system.node1.cpus2.l2cache.mem_side_port::system.bridge1.cpu_side_port         3124                       # Packet count per connected requestor and responder (Count)
system.node1.xbar.pktCount_system.node1.cpus2.l2cache.mem_side_port::total         3124                       # Packet count per connected requestor and responder (Count)
system.node1.xbar.pktCount_system.node1.cpus3.l2cache.mem_side_port::system.bridge1.cpu_side_port         3120                       # Packet count per connected requestor and responder (Count)
system.node1.xbar.pktCount_system.node1.cpus3.l2cache.mem_side_port::total         3120                       # Packet count per connected requestor and responder (Count)
system.node1.xbar.pktCount_system.node1.cpus4.l2cache.mem_side_port::system.bridge1.cpu_side_port         3118                       # Packet count per connected requestor and responder (Count)
system.node1.xbar.pktCount_system.node1.cpus4.l2cache.mem_side_port::total         3118                       # Packet count per connected requestor and responder (Count)
system.node1.xbar.pktCount_system.node1.cpus5.l2cache.mem_side_port::system.bridge1.cpu_side_port         3122                       # Packet count per connected requestor and responder (Count)
system.node1.xbar.pktCount_system.node1.cpus5.l2cache.mem_side_port::total         3122                       # Packet count per connected requestor and responder (Count)
system.node1.xbar.pktCount_system.node1.cpus6.l2cache.mem_side_port::system.bridge1.cpu_side_port         3120                       # Packet count per connected requestor and responder (Count)
system.node1.xbar.pktCount_system.node1.cpus6.l2cache.mem_side_port::total         3120                       # Packet count per connected requestor and responder (Count)
system.node1.xbar.pktCount_system.node1.cpus7.l2cache.mem_side_port::system.bridge1.cpu_side_port         3122                       # Packet count per connected requestor and responder (Count)
system.node1.xbar.pktCount_system.node1.cpus7.l2cache.mem_side_port::total         3122                       # Packet count per connected requestor and responder (Count)
system.node1.xbar.pktCount::total               24968                       # Packet count per connected requestor and responder (Count)
system.node1.xbar.pktSize_system.node1.cpus0.l2cache.mem_side_port::system.bridge1.cpu_side_port        99904                       # Cumulative packet size per connected requestor and responder (Byte)
system.node1.xbar.pktSize_system.node1.cpus0.l2cache.mem_side_port::total        99904                       # Cumulative packet size per connected requestor and responder (Byte)
system.node1.xbar.pktSize_system.node1.cpus1.l2cache.mem_side_port::system.bridge1.cpu_side_port        99840                       # Cumulative packet size per connected requestor and responder (Byte)
system.node1.xbar.pktSize_system.node1.cpus1.l2cache.mem_side_port::total        99840                       # Cumulative packet size per connected requestor and responder (Byte)
system.node1.xbar.pktSize_system.node1.cpus2.l2cache.mem_side_port::system.bridge1.cpu_side_port        99968                       # Cumulative packet size per connected requestor and responder (Byte)
system.node1.xbar.pktSize_system.node1.cpus2.l2cache.mem_side_port::total        99968                       # Cumulative packet size per connected requestor and responder (Byte)
system.node1.xbar.pktSize_system.node1.cpus3.l2cache.mem_side_port::system.bridge1.cpu_side_port        99840                       # Cumulative packet size per connected requestor and responder (Byte)
system.node1.xbar.pktSize_system.node1.cpus3.l2cache.mem_side_port::total        99840                       # Cumulative packet size per connected requestor and responder (Byte)
system.node1.xbar.pktSize_system.node1.cpus4.l2cache.mem_side_port::system.bridge1.cpu_side_port        99776                       # Cumulative packet size per connected requestor and responder (Byte)
system.node1.xbar.pktSize_system.node1.cpus4.l2cache.mem_side_port::total        99776                       # Cumulative packet size per connected requestor and responder (Byte)
system.node1.xbar.pktSize_system.node1.cpus5.l2cache.mem_side_port::system.bridge1.cpu_side_port        99904                       # Cumulative packet size per connected requestor and responder (Byte)
system.node1.xbar.pktSize_system.node1.cpus5.l2cache.mem_side_port::total        99904                       # Cumulative packet size per connected requestor and responder (Byte)
system.node1.xbar.pktSize_system.node1.cpus6.l2cache.mem_side_port::system.bridge1.cpu_side_port        99840                       # Cumulative packet size per connected requestor and responder (Byte)
system.node1.xbar.pktSize_system.node1.cpus6.l2cache.mem_side_port::total        99840                       # Cumulative packet size per connected requestor and responder (Byte)
system.node1.xbar.pktSize_system.node1.cpus7.l2cache.mem_side_port::system.bridge1.cpu_side_port        99904                       # Cumulative packet size per connected requestor and responder (Byte)
system.node1.xbar.pktSize_system.node1.cpus7.l2cache.mem_side_port::total        99904                       # Cumulative packet size per connected requestor and responder (Byte)
system.node1.xbar.pktSize::total               798976                       # Cumulative packet size per connected requestor and responder (Byte)
system.node1.xbar.snoops                            0                       # Total snoops (Count)
system.node1.xbar.snoopTraffic                      0                       # Total snoop traffic (Byte)
system.node1.xbar.snoopFanout::samples          17436                       # Request fanout histogram (Count)
system.node1.xbar.snoopFanout::mean                 0                       # Request fanout histogram (Count)
system.node1.xbar.snoopFanout::stdev                0                       # Request fanout histogram (Count)
system.node1.xbar.snoopFanout::underflows            0      0.00%      0.00% # Request fanout histogram (Count)
system.node1.xbar.snoopFanout::0                17436    100.00%    100.00% # Request fanout histogram (Count)
system.node1.xbar.snoopFanout::1                    0      0.00%    100.00% # Request fanout histogram (Count)
system.node1.xbar.snoopFanout::2                    0      0.00%    100.00% # Request fanout histogram (Count)
system.node1.xbar.snoopFanout::3                    0      0.00%    100.00% # Request fanout histogram (Count)
system.node1.xbar.snoopFanout::4                    0      0.00%    100.00% # Request fanout histogram (Count)
system.node1.xbar.snoopFanout::5                    0      0.00%    100.00% # Request fanout histogram (Count)
system.node1.xbar.snoopFanout::6                    0      0.00%    100.00% # Request fanout histogram (Count)
system.node1.xbar.snoopFanout::7                    0      0.00%    100.00% # Request fanout histogram (Count)
system.node1.xbar.snoopFanout::8                    0      0.00%    100.00% # Request fanout histogram (Count)
system.node1.xbar.snoopFanout::overflows            0      0.00%    100.00% # Request fanout histogram (Count)
system.node1.xbar.snoopFanout::min_value            0                       # Request fanout histogram (Count)
system.node1.xbar.snoopFanout::max_value            0                       # Request fanout histogram (Count)
system.node1.xbar.snoopFanout::total            17436                       # Request fanout histogram (Count)
system.node1.xbar.power_state.pwrStateResidencyTicks::UNDEFINED   2543978668                       # Cumulative time (in ticks) in various power states (Tick)
system.node1.xbar.reqLayer17.occupancy       22167552                       # Layer occupancy (ticks) (Tick)
system.node1.xbar.reqLayer17.utilization          0.0                       # Layer utilization (Ratio)
system.node1.xbar.respLayer1.occupancy        7805000                       # Layer occupancy (ticks) (Tick)
system.node1.xbar.respLayer1.utilization          0.0                       # Layer utilization (Ratio)
system.node1.xbar.respLayer13.occupancy       7800000                       # Layer occupancy (ticks) (Tick)
system.node1.xbar.respLayer13.utilization          0.0                       # Layer utilization (Ratio)
system.node1.xbar.respLayer17.occupancy       7795000                       # Layer occupancy (ticks) (Tick)
system.node1.xbar.respLayer17.utilization          0.0                       # Layer utilization (Ratio)
system.node1.xbar.respLayer21.occupancy       7805000                       # Layer occupancy (ticks) (Tick)
system.node1.xbar.respLayer21.utilization          0.0                       # Layer utilization (Ratio)
system.node1.xbar.respLayer25.occupancy       7800000                       # Layer occupancy (ticks) (Tick)
system.node1.xbar.respLayer25.utilization          0.0                       # Layer utilization (Ratio)
system.node1.xbar.respLayer29.occupancy       7805000                       # Layer occupancy (ticks) (Tick)
system.node1.xbar.respLayer29.utilization          0.0                       # Layer utilization (Ratio)
system.node1.xbar.respLayer5.occupancy        7800000                       # Layer occupancy (ticks) (Tick)
system.node1.xbar.respLayer5.utilization          0.0                       # Layer utilization (Ratio)
system.node1.xbar.respLayer9.occupancy        7810000                       # Layer occupancy (ticks) (Tick)
system.node1.xbar.respLayer9.utilization          0.0                       # Layer utilization (Ratio)
system.node1.xbar.snoop_filter.totRequests        17436                       # Total number of requests made to the snoop filter. (Count)
system.node1.xbar.snoop_filter.hitSingleRequests            0                       # Number of requests hitting in the snoop filter with a single holder of the requested data. (Count)
system.node1.xbar.snoop_filter.hitMultiRequests            0                       # Number of requests hitting in the snoop filter with multiple (>1) holders of the requested data. (Count)
system.node1.xbar.snoop_filter.totSnoops            0                       # Total number of snoops made to the snoop filter. (Count)
system.node1.xbar.snoop_filter.hitSingleSnoops            0                       # Number of snoops hitting in the snoop filter with a single holder of the requested data. (Count)
system.node1.xbar.snoop_filter.hitMultiSnoops            0                       # Number of snoops hitting in the snoop filter with multiple (>1) holders of the requested data. (Count)
system.workload.inst.arm                            0                       # number of arm instructions executed (Count)
system.workload.inst.quiesce                        0                       # number of quiesce instructions executed (Count)

---------- End Simulation Statistics   ----------
