
---------- Begin Simulation Statistics ----------
simSeconds                                   0.002549                       # Number of seconds simulated (Second)
simTicks                                   2549033000                       # Number of ticks simulated (Tick)
finalTick                                  2549033000                       # Number of ticks from beginning of simulation (restored from checkpoints and never reset) (Tick)
simFreq                                  1000000000000                       # The number of ticks per simulated second ((Tick/Second))
hostSeconds                                     66.90                       # Real time elapsed on the host (Second)
hostTickRate                                 38099338                       # The number of ticks simulated per host second (ticks/s) ((Tick/Second))
hostMemory                                    4316740                       # Number of bytes of host memory used (Byte)
simInsts                                     24686467                       # Number of instructions simulated (Count)
simOps                                       45907768                       # Number of ops (including micro ops) simulated (Count)
hostInstRate                                   368978                       # Simulator instruction rate (inst/s) ((Count/Second))
hostOpRate                                     686164                       # Simulator op (including micro ops) rate (op/s) ((Count/Second))
system.bridge0.power_state.pwrStateResidencyTicks::UNDEFINED   2549033000                       # Cumulative time (in ticks) in various power states (Tick)
system.bridge1.power_state.pwrStateResidencyTicks::UNDEFINED   2549033000                       # Cumulative time (in ticks) in various power states (Tick)
system.clk_domain.clock                          1000                       # Clock period in ticks (Tick)
system.clk_domain.voltage_domain.voltage            1                       # Voltage in Volts (Volt)
system.node0.cpus0.numCycles                  8723621                       # Number of cpu cycles simulated (Cycle)
system.node0.cpus0.cpi                       0.749891                       # CPI: cycles per instruction (core level) ((Cycle/Count))
system.node0.cpus0.ipc                       1.333528                       # IPC: instructions per cycle (core level) ((Count/Cycle))
system.node0.cpus0.numWorkItemsStarted              0                       # Number of work items this cpu started (Count)
system.node0.cpus0.numWorkItemsCompleted            0                       # Number of work items this cpu completed (Count)
system.node0.cpus0.instsAdded                22721098                       # Number of instructions added to the IQ (excludes non-spec) (Count)
system.node0.cpus0.nonSpecInstsAdded             4625                       # Number of non-speculative instructions added to the IQ (Count)
system.node0.cpus0.instsIssued               22343016                       # Number of instructions issued (Count)
system.node0.cpus0.squashedInstsIssued          29417                       # Number of squashed instructions issued (Count)
system.node0.cpus0.squashedInstsExamined      1006915                       # Number of squashed instructions iterated over during squash; mainly for profiling (Count)
system.node0.cpus0.squashedOperandsExamined      1858587                       # Number of squashed operands that are examined and possibly removed from graph (Count)
system.node0.cpus0.squashedNonSpecRemoved         1111                       # Number of squashed non-spec instructions that were removed (Count)
system.node0.cpus0.numIssuedDist::samples      8244675                       # Number of insts issued each cycle (Count)
system.node0.cpus0.numIssuedDist::mean       2.709994                       # Number of insts issued each cycle (Count)
system.node0.cpus0.numIssuedDist::stdev      2.896247                       # Number of insts issued each cycle (Count)
system.node0.cpus0.numIssuedDist::underflows            0      0.00%      0.00% # Number of insts issued each cycle (Count)
system.node0.cpus0.numIssuedDist::0           3605151     43.73%     43.73% # Number of insts issued each cycle (Count)
system.node0.cpus0.numIssuedDist::1            418258      5.07%     48.80% # Number of insts issued each cycle (Count)
system.node0.cpus0.numIssuedDist::2            462979      5.62%     54.42% # Number of insts issued each cycle (Count)
system.node0.cpus0.numIssuedDist::3            490940      5.95%     60.37% # Number of insts issued each cycle (Count)
system.node0.cpus0.numIssuedDist::4            647524      7.85%     68.22% # Number of insts issued each cycle (Count)
system.node0.cpus0.numIssuedDist::5            640378      7.77%     75.99% # Number of insts issued each cycle (Count)
system.node0.cpus0.numIssuedDist::6            744165      9.03%     85.02% # Number of insts issued each cycle (Count)
system.node0.cpus0.numIssuedDist::7            613236      7.44%     92.46% # Number of insts issued each cycle (Count)
system.node0.cpus0.numIssuedDist::8            622044      7.54%    100.00% # Number of insts issued each cycle (Count)
system.node0.cpus0.numIssuedDist::overflows            0      0.00%    100.00% # Number of insts issued each cycle (Count)
system.node0.cpus0.numIssuedDist::min_value            0                       # Number of insts issued each cycle (Count)
system.node0.cpus0.numIssuedDist::max_value            8                       # Number of insts issued each cycle (Count)
system.node0.cpus0.numIssuedDist::total       8244675                       # Number of insts issued each cycle (Count)
system.node0.cpus0.statFuBusy::No_OpClass            0      0.00%      0.00% # attempts to use FU when none available (Count)
system.node0.cpus0.statFuBusy::IntAlu          100129      8.49%      8.49% # attempts to use FU when none available (Count)
system.node0.cpus0.statFuBusy::IntMult              0      0.00%      8.49% # attempts to use FU when none available (Count)
system.node0.cpus0.statFuBusy::IntDiv               0      0.00%      8.49% # attempts to use FU when none available (Count)
system.node0.cpus0.statFuBusy::FloatAdd             0      0.00%      8.49% # attempts to use FU when none available (Count)
system.node0.cpus0.statFuBusy::FloatCmp             0      0.00%      8.49% # attempts to use FU when none available (Count)
system.node0.cpus0.statFuBusy::FloatCvt             0      0.00%      8.49% # attempts to use FU when none available (Count)
system.node0.cpus0.statFuBusy::FloatMult            0      0.00%      8.49% # attempts to use FU when none available (Count)
system.node0.cpus0.statFuBusy::FloatMultAcc            0      0.00%      8.49% # attempts to use FU when none available (Count)
system.node0.cpus0.statFuBusy::FloatDiv             0      0.00%      8.49% # attempts to use FU when none available (Count)
system.node0.cpus0.statFuBusy::FloatMisc            0      0.00%      8.49% # attempts to use FU when none available (Count)
system.node0.cpus0.statFuBusy::FloatSqrt            0      0.00%      8.49% # attempts to use FU when none available (Count)
system.node0.cpus0.statFuBusy::SimdAdd              1      0.00%      8.49% # attempts to use FU when none available (Count)
system.node0.cpus0.statFuBusy::SimdAddAcc            0      0.00%      8.49% # attempts to use FU when none available (Count)
system.node0.cpus0.statFuBusy::SimdAlu          23919      2.03%     10.52% # attempts to use FU when none available (Count)
system.node0.cpus0.statFuBusy::SimdCmp              2      0.00%     10.52% # attempts to use FU when none available (Count)
system.node0.cpus0.statFuBusy::SimdCvt             16      0.00%     10.52% # attempts to use FU when none available (Count)
system.node0.cpus0.statFuBusy::SimdMisc           102      0.01%     10.53% # attempts to use FU when none available (Count)
system.node0.cpus0.statFuBusy::SimdMult             0      0.00%     10.53% # attempts to use FU when none available (Count)
system.node0.cpus0.statFuBusy::SimdMultAcc            0      0.00%     10.53% # attempts to use FU when none available (Count)
system.node0.cpus0.statFuBusy::SimdMatMultAcc            0      0.00%     10.53% # attempts to use FU when none available (Count)
system.node0.cpus0.statFuBusy::SimdShift            1      0.00%     10.53% # attempts to use FU when none available (Count)
system.node0.cpus0.statFuBusy::SimdShiftAcc            0      0.00%     10.53% # attempts to use FU when none available (Count)
system.node0.cpus0.statFuBusy::SimdDiv              0      0.00%     10.53% # attempts to use FU when none available (Count)
system.node0.cpus0.statFuBusy::SimdSqrt             0      0.00%     10.53% # attempts to use FU when none available (Count)
system.node0.cpus0.statFuBusy::SimdFloatAdd       146577     12.43%     22.95% # attempts to use FU when none available (Count)
system.node0.cpus0.statFuBusy::SimdFloatAlu            0      0.00%     22.95% # attempts to use FU when none available (Count)
system.node0.cpus0.statFuBusy::SimdFloatCmp         6428      0.54%     23.50% # attempts to use FU when none available (Count)
system.node0.cpus0.statFuBusy::SimdFloatCvt          121      0.01%     23.51% # attempts to use FU when none available (Count)
system.node0.cpus0.statFuBusy::SimdFloatDiv            0      0.00%     23.51% # attempts to use FU when none available (Count)
system.node0.cpus0.statFuBusy::SimdFloatMisc            0      0.00%     23.51% # attempts to use FU when none available (Count)
system.node0.cpus0.statFuBusy::SimdFloatMult        86729      7.35%     30.86% # attempts to use FU when none available (Count)
system.node0.cpus0.statFuBusy::SimdFloatMultAcc            0      0.00%     30.86% # attempts to use FU when none available (Count)
system.node0.cpus0.statFuBusy::SimdFloatMatMultAcc            0      0.00%     30.86% # attempts to use FU when none available (Count)
system.node0.cpus0.statFuBusy::SimdFloatSqrt            0      0.00%     30.86% # attempts to use FU when none available (Count)
system.node0.cpus0.statFuBusy::SimdReduceAdd            0      0.00%     30.86% # attempts to use FU when none available (Count)
system.node0.cpus0.statFuBusy::SimdReduceAlu            0      0.00%     30.86% # attempts to use FU when none available (Count)
system.node0.cpus0.statFuBusy::SimdReduceCmp            0      0.00%     30.86% # attempts to use FU when none available (Count)
system.node0.cpus0.statFuBusy::SimdFloatReduceAdd            0      0.00%     30.86% # attempts to use FU when none available (Count)
system.node0.cpus0.statFuBusy::SimdFloatReduceCmp            0      0.00%     30.86% # attempts to use FU when none available (Count)
system.node0.cpus0.statFuBusy::SimdAes              0      0.00%     30.86% # attempts to use FU when none available (Count)
system.node0.cpus0.statFuBusy::SimdAesMix            0      0.00%     30.86% # attempts to use FU when none available (Count)
system.node0.cpus0.statFuBusy::SimdSha1Hash            0      0.00%     30.86% # attempts to use FU when none available (Count)
system.node0.cpus0.statFuBusy::SimdSha1Hash2            0      0.00%     30.86% # attempts to use FU when none available (Count)
system.node0.cpus0.statFuBusy::SimdSha256Hash            0      0.00%     30.86% # attempts to use FU when none available (Count)
system.node0.cpus0.statFuBusy::SimdSha256Hash2            0      0.00%     30.86% # attempts to use FU when none available (Count)
system.node0.cpus0.statFuBusy::SimdShaSigma2            0      0.00%     30.86% # attempts to use FU when none available (Count)
system.node0.cpus0.statFuBusy::SimdShaSigma3            0      0.00%     30.86% # attempts to use FU when none available (Count)
system.node0.cpus0.statFuBusy::SimdSha3             0      0.00%     30.86% # attempts to use FU when none available (Count)
system.node0.cpus0.statFuBusy::SimdSm4e             0      0.00%     30.86% # attempts to use FU when none available (Count)
system.node0.cpus0.statFuBusy::SimdCrc              0      0.00%     30.86% # attempts to use FU when none available (Count)
system.node0.cpus0.statFuBusy::SimdPredAlu            0      0.00%     30.86% # attempts to use FU when none available (Count)
system.node0.cpus0.statFuBusy::SimdDotProd            0      0.00%     30.86% # attempts to use FU when none available (Count)
system.node0.cpus0.statFuBusy::Matrix               0      0.00%     30.86% # attempts to use FU when none available (Count)
system.node0.cpus0.statFuBusy::MatrixMov            0      0.00%     30.86% # attempts to use FU when none available (Count)
system.node0.cpus0.statFuBusy::MatrixOP             0      0.00%     30.86% # attempts to use FU when none available (Count)
system.node0.cpus0.statFuBusy::MemRead          25144      2.13%     32.99% # attempts to use FU when none available (Count)
system.node0.cpus0.statFuBusy::MemWrite          4082      0.35%     33.34% # attempts to use FU when none available (Count)
system.node0.cpus0.statFuBusy::FloatMemRead       783109     66.39%     99.73% # attempts to use FU when none available (Count)
system.node0.cpus0.statFuBusy::FloatMemWrite         3227      0.27%    100.00% # attempts to use FU when none available (Count)
system.node0.cpus0.statFuBusy::InstPrefetch            0      0.00%    100.00% # attempts to use FU when none available (Count)
system.node0.cpus0.statFuBusy::SimdUnitStrideLoad            0      0.00%    100.00% # attempts to use FU when none available (Count)
system.node0.cpus0.statFuBusy::SimdUnitStrideStore            0      0.00%    100.00% # attempts to use FU when none available (Count)
system.node0.cpus0.statFuBusy::SimdUnitStrideMaskLoad            0      0.00%    100.00% # attempts to use FU when none available (Count)
system.node0.cpus0.statFuBusy::SimdUnitStrideMaskStore            0      0.00%    100.00% # attempts to use FU when none available (Count)
system.node0.cpus0.statFuBusy::SimdStridedLoad            0      0.00%    100.00% # attempts to use FU when none available (Count)
system.node0.cpus0.statFuBusy::SimdStridedStore            0      0.00%    100.00% # attempts to use FU when none available (Count)
system.node0.cpus0.statFuBusy::SimdIndexedLoad            0      0.00%    100.00% # attempts to use FU when none available (Count)
system.node0.cpus0.statFuBusy::SimdIndexedStore            0      0.00%    100.00% # attempts to use FU when none available (Count)
system.node0.cpus0.statFuBusy::SimdWholeRegisterLoad            0      0.00%    100.00% # attempts to use FU when none available (Count)
system.node0.cpus0.statFuBusy::SimdWholeRegisterStore            0      0.00%    100.00% # attempts to use FU when none available (Count)
system.node0.cpus0.statFuBusy::SimdUnitStrideFaultOnlyFirstLoad            0      0.00%    100.00% # attempts to use FU when none available (Count)
system.node0.cpus0.statFuBusy::SimdUnitStrideSegmentedLoad            0      0.00%    100.00% # attempts to use FU when none available (Count)
system.node0.cpus0.statFuBusy::SimdUnitStrideSegmentedStore            0      0.00%    100.00% # attempts to use FU when none available (Count)
system.node0.cpus0.statFuBusy::SimdUnitStrideSegmentedFaultOnlyFirstLoad            0      0.00%    100.00% # attempts to use FU when none available (Count)
system.node0.cpus0.statFuBusy::SimdStrideSegmentedLoad            0      0.00%    100.00% # attempts to use FU when none available (Count)
system.node0.cpus0.statFuBusy::SimdStrideSegmentedStore            0      0.00%    100.00% # attempts to use FU when none available (Count)
system.node0.cpus0.statFuBusy::SimdExt              0      0.00%    100.00% # attempts to use FU when none available (Count)
system.node0.cpus0.statFuBusy::SimdFloatExt            0      0.00%    100.00% # attempts to use FU when none available (Count)
system.node0.cpus0.statFuBusy::SimdConfig            0      0.00%    100.00% # attempts to use FU when none available (Count)
system.node0.cpus0.statFuBusy::SimdBf16Add            0      0.00%    100.00% # attempts to use FU when none available (Count)
system.node0.cpus0.statFuBusy::SimdBf16Cmp            0      0.00%    100.00% # attempts to use FU when none available (Count)
system.node0.cpus0.statFuBusy::SimdBf16Cvt            0      0.00%    100.00% # attempts to use FU when none available (Count)
system.node0.cpus0.statFuBusy::SimdBf16DotProd            0      0.00%    100.00% # attempts to use FU when none available (Count)
system.node0.cpus0.statFuBusy::SimdBf16MatMultAcc            0      0.00%    100.00% # attempts to use FU when none available (Count)
system.node0.cpus0.statFuBusy::SimdBf16Mult            0      0.00%    100.00% # attempts to use FU when none available (Count)
system.node0.cpus0.statFuBusy::SimdBf16MultAcc            0      0.00%    100.00% # attempts to use FU when none available (Count)
system.node0.cpus0.statFuBusy::Bf16Cvt              0      0.00%    100.00% # attempts to use FU when none available (Count)
system.node0.cpus0.statFuBusy::System               0      0.00%    100.00% # attempts to use FU when none available (Count)
system.node0.cpus0.issuedInstType_0::No_OpClass        56000      0.25%      0.25% # Number of instructions issued per FU type, per thread (Count)
system.node0.cpus0.issuedInstType_0::IntAlu      7985293     35.74%     35.99% # Number of instructions issued per FU type, per thread (Count)
system.node0.cpus0.issuedInstType_0::IntMult       119475      0.53%     36.52% # Number of instructions issued per FU type, per thread (Count)
system.node0.cpus0.issuedInstType_0::IntDiv         4115      0.02%     36.54% # Number of instructions issued per FU type, per thread (Count)
system.node0.cpus0.issuedInstType_0::FloatAdd       156703      0.70%     37.24% # Number of instructions issued per FU type, per thread (Count)
system.node0.cpus0.issuedInstType_0::FloatCmp            0      0.00%     37.24% # Number of instructions issued per FU type, per thread (Count)
system.node0.cpus0.issuedInstType_0::FloatCvt            0      0.00%     37.24% # Number of instructions issued per FU type, per thread (Count)
system.node0.cpus0.issuedInstType_0::FloatMult            0      0.00%     37.24% # Number of instructions issued per FU type, per thread (Count)
system.node0.cpus0.issuedInstType_0::FloatMultAcc            0      0.00%     37.24% # Number of instructions issued per FU type, per thread (Count)
system.node0.cpus0.issuedInstType_0::FloatDiv            0      0.00%     37.24% # Number of instructions issued per FU type, per thread (Count)
system.node0.cpus0.issuedInstType_0::FloatMisc            0      0.00%     37.24% # Number of instructions issued per FU type, per thread (Count)
system.node0.cpus0.issuedInstType_0::FloatSqrt            0      0.00%     37.24% # Number of instructions issued per FU type, per thread (Count)
system.node0.cpus0.issuedInstType_0::SimdAdd          362      0.00%     37.25% # Number of instructions issued per FU type, per thread (Count)
system.node0.cpus0.issuedInstType_0::SimdAddAcc            0      0.00%     37.25% # Number of instructions issued per FU type, per thread (Count)
system.node0.cpus0.issuedInstType_0::SimdAlu       143049      0.64%     37.89% # Number of instructions issued per FU type, per thread (Count)
system.node0.cpus0.issuedInstType_0::SimdCmp           31      0.00%     37.89% # Number of instructions issued per FU type, per thread (Count)
system.node0.cpus0.issuedInstType_0::SimdCvt         1784      0.01%     37.89% # Number of instructions issued per FU type, per thread (Count)
system.node0.cpus0.issuedInstType_0::SimdMisc        79804      0.36%     38.25% # Number of instructions issued per FU type, per thread (Count)
system.node0.cpus0.issuedInstType_0::SimdMult            0      0.00%     38.25% # Number of instructions issued per FU type, per thread (Count)
system.node0.cpus0.issuedInstType_0::SimdMultAcc            0      0.00%     38.25% # Number of instructions issued per FU type, per thread (Count)
system.node0.cpus0.issuedInstType_0::SimdMatMultAcc            0      0.00%     38.25% # Number of instructions issued per FU type, per thread (Count)
system.node0.cpus0.issuedInstType_0::SimdShift         1076      0.00%     38.26% # Number of instructions issued per FU type, per thread (Count)
system.node0.cpus0.issuedInstType_0::SimdShiftAcc            0      0.00%     38.26% # Number of instructions issued per FU type, per thread (Count)
system.node0.cpus0.issuedInstType_0::SimdDiv            0      0.00%     38.26% # Number of instructions issued per FU type, per thread (Count)
system.node0.cpus0.issuedInstType_0::SimdSqrt            0      0.00%     38.26% # Number of instructions issued per FU type, per thread (Count)
system.node0.cpus0.issuedInstType_0::SimdFloatAdd      4411586     19.74%     58.00% # Number of instructions issued per FU type, per thread (Count)
system.node0.cpus0.issuedInstType_0::SimdFloatAlu            0      0.00%     58.00% # Number of instructions issued per FU type, per thread (Count)
system.node0.cpus0.issuedInstType_0::SimdFloatCmp        70457      0.32%     58.32% # Number of instructions issued per FU type, per thread (Count)
system.node0.cpus0.issuedInstType_0::SimdFloatCvt       108422      0.49%     58.80% # Number of instructions issued per FU type, per thread (Count)
system.node0.cpus0.issuedInstType_0::SimdFloatDiv           18      0.00%     58.80% # Number of instructions issued per FU type, per thread (Count)
system.node0.cpus0.issuedInstType_0::SimdFloatMisc            0      0.00%     58.80% # Number of instructions issued per FU type, per thread (Count)
system.node0.cpus0.issuedInstType_0::SimdFloatMult      1164538      5.21%     64.01% # Number of instructions issued per FU type, per thread (Count)
system.node0.cpus0.issuedInstType_0::SimdFloatMultAcc            0      0.00%     64.01% # Number of instructions issued per FU type, per thread (Count)
system.node0.cpus0.issuedInstType_0::SimdFloatMatMultAcc            0      0.00%     64.01% # Number of instructions issued per FU type, per thread (Count)
system.node0.cpus0.issuedInstType_0::SimdFloatSqrt            4      0.00%     64.01% # Number of instructions issued per FU type, per thread (Count)
system.node0.cpus0.issuedInstType_0::SimdReduceAdd            0      0.00%     64.01% # Number of instructions issued per FU type, per thread (Count)
system.node0.cpus0.issuedInstType_0::SimdReduceAlu            0      0.00%     64.01% # Number of instructions issued per FU type, per thread (Count)
system.node0.cpus0.issuedInstType_0::SimdReduceCmp            0      0.00%     64.01% # Number of instructions issued per FU type, per thread (Count)
system.node0.cpus0.issuedInstType_0::SimdFloatReduceAdd            0      0.00%     64.01% # Number of instructions issued per FU type, per thread (Count)
system.node0.cpus0.issuedInstType_0::SimdFloatReduceCmp            0      0.00%     64.01% # Number of instructions issued per FU type, per thread (Count)
system.node0.cpus0.issuedInstType_0::SimdAes            0      0.00%     64.01% # Number of instructions issued per FU type, per thread (Count)
system.node0.cpus0.issuedInstType_0::SimdAesMix            0      0.00%     64.01% # Number of instructions issued per FU type, per thread (Count)
system.node0.cpus0.issuedInstType_0::SimdSha1Hash            0      0.00%     64.01% # Number of instructions issued per FU type, per thread (Count)
system.node0.cpus0.issuedInstType_0::SimdSha1Hash2            0      0.00%     64.01% # Number of instructions issued per FU type, per thread (Count)
system.node0.cpus0.issuedInstType_0::SimdSha256Hash            0      0.00%     64.01% # Number of instructions issued per FU type, per thread (Count)
system.node0.cpus0.issuedInstType_0::SimdSha256Hash2            0      0.00%     64.01% # Number of instructions issued per FU type, per thread (Count)
system.node0.cpus0.issuedInstType_0::SimdShaSigma2            0      0.00%     64.01% # Number of instructions issued per FU type, per thread (Count)
system.node0.cpus0.issuedInstType_0::SimdShaSigma3            0      0.00%     64.01% # Number of instructions issued per FU type, per thread (Count)
system.node0.cpus0.issuedInstType_0::SimdSha3            0      0.00%     64.01% # Number of instructions issued per FU type, per thread (Count)
system.node0.cpus0.issuedInstType_0::SimdSm4e            0      0.00%     64.01% # Number of instructions issued per FU type, per thread (Count)
system.node0.cpus0.issuedInstType_0::SimdCrc            0      0.00%     64.01% # Number of instructions issued per FU type, per thread (Count)
system.node0.cpus0.issuedInstType_0::SimdPredAlu            0      0.00%     64.01% # Number of instructions issued per FU type, per thread (Count)
system.node0.cpus0.issuedInstType_0::SimdDotProd            0      0.00%     64.01% # Number of instructions issued per FU type, per thread (Count)
system.node0.cpus0.issuedInstType_0::Matrix            0      0.00%     64.01% # Number of instructions issued per FU type, per thread (Count)
system.node0.cpus0.issuedInstType_0::MatrixMov            0      0.00%     64.01% # Number of instructions issued per FU type, per thread (Count)
system.node0.cpus0.issuedInstType_0::MatrixOP            0      0.00%     64.01% # Number of instructions issued per FU type, per thread (Count)
system.node0.cpus0.issuedInstType_0::MemRead       706062      3.16%     67.17% # Number of instructions issued per FU type, per thread (Count)
system.node0.cpus0.issuedInstType_0::MemWrite       282492      1.26%     68.44% # Number of instructions issued per FU type, per thread (Count)
system.node0.cpus0.issuedInstType_0::FloatMemRead      5601719     25.07%     93.51% # Number of instructions issued per FU type, per thread (Count)
system.node0.cpus0.issuedInstType_0::FloatMemWrite      1450026      6.49%    100.00% # Number of instructions issued per FU type, per thread (Count)
system.node0.cpus0.issuedInstType_0::InstPrefetch            0      0.00%    100.00% # Number of instructions issued per FU type, per thread (Count)
system.node0.cpus0.issuedInstType_0::SimdUnitStrideLoad            0      0.00%    100.00% # Number of instructions issued per FU type, per thread (Count)
system.node0.cpus0.issuedInstType_0::SimdUnitStrideStore            0      0.00%    100.00% # Number of instructions issued per FU type, per thread (Count)
system.node0.cpus0.issuedInstType_0::SimdUnitStrideMaskLoad            0      0.00%    100.00% # Number of instructions issued per FU type, per thread (Count)
system.node0.cpus0.issuedInstType_0::SimdUnitStrideMaskStore            0      0.00%    100.00% # Number of instructions issued per FU type, per thread (Count)
system.node0.cpus0.issuedInstType_0::SimdStridedLoad            0      0.00%    100.00% # Number of instructions issued per FU type, per thread (Count)
system.node0.cpus0.issuedInstType_0::SimdStridedStore            0      0.00%    100.00% # Number of instructions issued per FU type, per thread (Count)
system.node0.cpus0.issuedInstType_0::SimdIndexedLoad            0      0.00%    100.00% # Number of instructions issued per FU type, per thread (Count)
system.node0.cpus0.issuedInstType_0::SimdIndexedStore            0      0.00%    100.00% # Number of instructions issued per FU type, per thread (Count)
system.node0.cpus0.issuedInstType_0::SimdWholeRegisterLoad            0      0.00%    100.00% # Number of instructions issued per FU type, per thread (Count)
system.node0.cpus0.issuedInstType_0::SimdWholeRegisterStore            0      0.00%    100.00% # Number of instructions issued per FU type, per thread (Count)
system.node0.cpus0.issuedInstType_0::SimdUnitStrideFaultOnlyFirstLoad            0      0.00%    100.00% # Number of instructions issued per FU type, per thread (Count)
system.node0.cpus0.issuedInstType_0::SimdUnitStrideSegmentedLoad            0      0.00%    100.00% # Number of instructions issued per FU type, per thread (Count)
system.node0.cpus0.issuedInstType_0::SimdUnitStrideSegmentedStore            0      0.00%    100.00% # Number of instructions issued per FU type, per thread (Count)
system.node0.cpus0.issuedInstType_0::SimdUnitStrideSegmentedFaultOnlyFirstLoad            0      0.00%    100.00% # Number of instructions issued per FU type, per thread (Count)
system.node0.cpus0.issuedInstType_0::SimdStrideSegmentedLoad            0      0.00%    100.00% # Number of instructions issued per FU type, per thread (Count)
system.node0.cpus0.issuedInstType_0::SimdStrideSegmentedStore            0      0.00%    100.00% # Number of instructions issued per FU type, per thread (Count)
system.node0.cpus0.issuedInstType_0::SimdExt            0      0.00%    100.00% # Number of instructions issued per FU type, per thread (Count)
system.node0.cpus0.issuedInstType_0::SimdFloatExt            0      0.00%    100.00% # Number of instructions issued per FU type, per thread (Count)
system.node0.cpus0.issuedInstType_0::SimdConfig            0      0.00%    100.00% # Number of instructions issued per FU type, per thread (Count)
system.node0.cpus0.issuedInstType_0::SimdBf16Add            0      0.00%    100.00% # Number of instructions issued per FU type, per thread (Count)
system.node0.cpus0.issuedInstType_0::SimdBf16Cmp            0      0.00%    100.00% # Number of instructions issued per FU type, per thread (Count)
system.node0.cpus0.issuedInstType_0::SimdBf16Cvt            0      0.00%    100.00% # Number of instructions issued per FU type, per thread (Count)
system.node0.cpus0.issuedInstType_0::SimdBf16DotProd            0      0.00%    100.00% # Number of instructions issued per FU type, per thread (Count)
system.node0.cpus0.issuedInstType_0::SimdBf16MatMultAcc            0      0.00%    100.00% # Number of instructions issued per FU type, per thread (Count)
system.node0.cpus0.issuedInstType_0::SimdBf16Mult            0      0.00%    100.00% # Number of instructions issued per FU type, per thread (Count)
system.node0.cpus0.issuedInstType_0::SimdBf16MultAcc            0      0.00%    100.00% # Number of instructions issued per FU type, per thread (Count)
system.node0.cpus0.issuedInstType_0::Bf16Cvt            0      0.00%    100.00% # Number of instructions issued per FU type, per thread (Count)
system.node0.cpus0.issuedInstType_0::System            0      0.00%    100.00% # Number of instructions issued per FU type, per thread (Count)
system.node0.cpus0.issuedInstType_0::total     22343016                       # Number of instructions issued per FU type, per thread (Count)
system.node0.cpus0.issueRate                 2.561209                       # Inst issue rate ((Count/Cycle))
system.node0.cpus0.fuBusy                     1179587                       # FU busy when requested (Count)
system.node0.cpus0.fuBusyRate                0.052794                       # FU busy rate (busy events/executed inst) ((Count/Count))
system.node0.cpus0.intInstQueueReads         24899583                       # Number of integer instruction queue reads (Count)
system.node0.cpus0.intInstQueueWrites         8840946                       # Number of integer instruction queue writes (Count)
system.node0.cpus0.intInstQueueWakeupAccesses      8186747                       # Number of integer instruction queue wakeup accesses (Count)
system.node0.cpus0.fpInstQueueReads          29240128                       # Number of floating instruction queue reads (Count)
system.node0.cpus0.fpInstQueueWrites         14892322                       # Number of floating instruction queue writes (Count)
system.node0.cpus0.fpInstQueueWakeupAccesses     13906622                       # Number of floating instruction queue wakeup accesses (Count)
system.node0.cpus0.vecInstQueueReads                0                       # Number of vector instruction queue reads (Count)
system.node0.cpus0.vecInstQueueWrites               0                       # Number of vector instruction queue writes (Count)
system.node0.cpus0.vecInstQueueWakeupAccesses            0                       # Number of vector instruction queue wakeup accesses (Count)
system.node0.cpus0.intAluAccesses             8330691                       # Number of integer alu accesses (Count)
system.node0.cpus0.fpAluAccesses             15135912                       # Number of floating point alu accesses (Count)
system.node0.cpus0.vecAluAccesses                   0                       # Number of vector alu accesses (Count)
system.node0.cpus0.numRecvResp                7885244                       # Number of received responses (Count)
system.node0.cpus0.numRecvRespBytes          61795662                       # Number of received response bytes (Byte)
system.node0.cpus0.recvRespAvgBW                 7.08                       # Average bandwidth of received responses ((Byte/Cycle))
system.node0.cpus0.recvRespAvgSize               7.84                       # Average packet size per received response ((Byte/Count))
system.node0.cpus0.recvRespAvgRate               0.90                       # Average rate of received responses per cycle ((Count/Cycle))
system.node0.cpus0.recvRespAvgRetryRate          0.00                       # Average retry rate per received response ((Count/Count))
system.node0.cpus0.numSendRetryResp                 0                       # Number of retry responses sent (Count)
system.node0.cpus0.numSquashedInsts            134985                       # Number of squashed instructions skipped in execute (Count)
system.node0.cpus0.numSwp                           0                       # Number of swp insts executed (Count)
system.node0.cpus0.timesIdled                    2054                       # Number of times that the entire CPU went into an idle state and unscheduled itself (Count)
system.node0.cpus0.idleCycles                  478946                       # Total number of cycles that the CPU has spent unscheduled due to idling (Cycle)
system.node0.cpus0.quiesceCycles               111160                       # Total number of cycles that CPU has spent quiesced or waiting for an interrupt (Cycle)
system.node0.cpus0.MemDepUnit__0.insertedLoads      6337564                       # Number of loads inserted to the mem dependence unit. (Count)
system.node0.cpus0.MemDepUnit__0.insertedStores      1776564                       # Number of stores inserted to the mem dependence unit. (Count)
system.node0.cpus0.MemDepUnit__0.conflictingLoads       391446                       # Number of conflicting loads. (Count)
system.node0.cpus0.MemDepUnit__0.conflictingStores       326992                       # Number of conflicting stores. (Count)
system.node0.cpus0.MemDepUnit__1.insertedLoads            0                       # Number of loads inserted to the mem dependence unit. (Count)
system.node0.cpus0.MemDepUnit__1.insertedStores            0                       # Number of stores inserted to the mem dependence unit. (Count)
system.node0.cpus0.MemDepUnit__1.conflictingLoads            0                       # Number of conflicting loads. (Count)
system.node0.cpus0.MemDepUnit__1.conflictingStores            0                       # Number of conflicting stores. (Count)
system.node0.cpus0.MemDepUnit__2.insertedLoads            0                       # Number of loads inserted to the mem dependence unit. (Count)
system.node0.cpus0.MemDepUnit__2.insertedStores            0                       # Number of stores inserted to the mem dependence unit. (Count)
system.node0.cpus0.MemDepUnit__2.conflictingLoads            0                       # Number of conflicting loads. (Count)
system.node0.cpus0.MemDepUnit__2.conflictingStores            0                       # Number of conflicting stores. (Count)
system.node0.cpus0.MemDepUnit__3.insertedLoads            0                       # Number of loads inserted to the mem dependence unit. (Count)
system.node0.cpus0.MemDepUnit__3.insertedStores            0                       # Number of stores inserted to the mem dependence unit. (Count)
system.node0.cpus0.MemDepUnit__3.conflictingLoads            0                       # Number of conflicting loads. (Count)
system.node0.cpus0.MemDepUnit__3.conflictingStores            0                       # Number of conflicting stores. (Count)
system.node0.cpus0.bac.fetchTargets                 0                       # Number of fetch targets created  (Count)
system.node0.cpus0.bac.branches               1058962                       # Number of branches that BAC encountered (Count)
system.node0.cpus0.bac.predTakenBranches       727548                       # Number of branches that BAC predicted taken. (Count)
system.node0.cpus0.bac.branchesNotLastuOp            0                       # Number of branches that fetch encountered which are not the last uOp within a macrooperation. Jump to itself. (Count)
system.node0.cpus0.bac.branchMisspredict        33294                       # Number of mispredicted branches (Count)
system.node0.cpus0.bac.noBranchMisspredict         1388                       # Number of non-branch instructions mispredicted (Count)
system.node0.cpus0.bac.squashBranchDecode         2005                       # Number of branches squashed from decode (Count)
system.node0.cpus0.bac.squashBranchCommit        31289                       # Number of branches squashed from commit (Count)
system.node0.cpus0.bac.preDecUpdate::NoBranch            0                       # Number of branches extracted from the predecoder (Count)
system.node0.cpus0.bac.preDecUpdate::Return            0                       # Number of branches extracted from the predecoder (Count)
system.node0.cpus0.bac.preDecUpdate::CallDirect            0                       # Number of branches extracted from the predecoder (Count)
system.node0.cpus0.bac.preDecUpdate::CallIndirect            0                       # Number of branches extracted from the predecoder (Count)
system.node0.cpus0.bac.preDecUpdate::DirectCond            0                       # Number of branches extracted from the predecoder (Count)
system.node0.cpus0.bac.preDecUpdate::DirectUncond            0                       # Number of branches extracted from the predecoder (Count)
system.node0.cpus0.bac.preDecUpdate::IndirectCond            0                       # Number of branches extracted from the predecoder (Count)
system.node0.cpus0.bac.preDecUpdate::IndirectUncond            0                       # Number of branches extracted from the predecoder (Count)
system.node0.cpus0.bac.preDecUpdate::total            0                       # Number of branches extracted from the predecoder (Count)
system.node0.cpus0.bac.noHistByType::NoBranch            0                       # Number and type of branches that were undetected by the BPU. (Count)
system.node0.cpus0.bac.noHistByType::Return            0                       # Number and type of branches that were undetected by the BPU. (Count)
system.node0.cpus0.bac.noHistByType::CallDirect            0                       # Number and type of branches that were undetected by the BPU. (Count)
system.node0.cpus0.bac.noHistByType::CallIndirect            0                       # Number and type of branches that were undetected by the BPU. (Count)
system.node0.cpus0.bac.noHistByType::DirectCond            0                       # Number and type of branches that were undetected by the BPU. (Count)
system.node0.cpus0.bac.noHistByType::DirectUncond            0                       # Number and type of branches that were undetected by the BPU. (Count)
system.node0.cpus0.bac.noHistByType::IndirectCond            0                       # Number and type of branches that were undetected by the BPU. (Count)
system.node0.cpus0.bac.noHistByType::IndirectUncond            0                       # Number and type of branches that were undetected by the BPU. (Count)
system.node0.cpus0.bac.noHistByType::total            0                       # Number and type of branches that were undetected by the BPU. (Count)
system.node0.cpus0.bac.typeMissmatch                0                       # Number branches where the branch type miss match (Count)
system.node0.cpus0.bac.multiBranchInst              0                       # Number branches because its not the last branch. (Count)
system.node0.cpus0.bac.ftSizeDist::samples            0                       # Number of bytes per fetch target (Count)
system.node0.cpus0.bac.ftSizeDist::mean           nan                       # Number of bytes per fetch target (Count)
system.node0.cpus0.bac.ftSizeDist::stdev          nan                       # Number of bytes per fetch target (Count)
system.node0.cpus0.bac.ftSizeDist::underflows            0                       # Number of bytes per fetch target (Count)
system.node0.cpus0.bac.ftSizeDist::0-3              0                       # Number of bytes per fetch target (Count)
system.node0.cpus0.bac.ftSizeDist::4-7              0                       # Number of bytes per fetch target (Count)
system.node0.cpus0.bac.ftSizeDist::8-11             0                       # Number of bytes per fetch target (Count)
system.node0.cpus0.bac.ftSizeDist::12-15            0                       # Number of bytes per fetch target (Count)
system.node0.cpus0.bac.ftSizeDist::16-19            0                       # Number of bytes per fetch target (Count)
system.node0.cpus0.bac.ftSizeDist::20-23            0                       # Number of bytes per fetch target (Count)
system.node0.cpus0.bac.ftSizeDist::24-27            0                       # Number of bytes per fetch target (Count)
system.node0.cpus0.bac.ftSizeDist::28-31            0                       # Number of bytes per fetch target (Count)
system.node0.cpus0.bac.ftSizeDist::32               0                       # Number of bytes per fetch target (Count)
system.node0.cpus0.bac.ftSizeDist::overflows            0                       # Number of bytes per fetch target (Count)
system.node0.cpus0.bac.ftSizeDist::min_value            0                       # Number of bytes per fetch target (Count)
system.node0.cpus0.bac.ftSizeDist::max_value            0                       # Number of bytes per fetch target (Count)
system.node0.cpus0.bac.ftSizeDist::total            0                       # Number of bytes per fetch target (Count)
system.node0.cpus0.bac.ftNumber::samples            0                       # Number of fetch target inserted to the FTQ per cycle (Count)
system.node0.cpus0.bac.ftNumber::mean             nan                       # Number of fetch target inserted to the FTQ per cycle (Count)
system.node0.cpus0.bac.ftNumber::stdev            nan                       # Number of fetch target inserted to the FTQ per cycle (Count)
system.node0.cpus0.bac.ftNumber::underflows            0                       # Number of fetch target inserted to the FTQ per cycle (Count)
system.node0.cpus0.bac.ftNumber::0                  0                       # Number of fetch target inserted to the FTQ per cycle (Count)
system.node0.cpus0.bac.ftNumber::1                  0                       # Number of fetch target inserted to the FTQ per cycle (Count)
system.node0.cpus0.bac.ftNumber::2                  0                       # Number of fetch target inserted to the FTQ per cycle (Count)
system.node0.cpus0.bac.ftNumber::3                  0                       # Number of fetch target inserted to the FTQ per cycle (Count)
system.node0.cpus0.bac.ftNumber::4                  0                       # Number of fetch target inserted to the FTQ per cycle (Count)
system.node0.cpus0.bac.ftNumber::overflows            0                       # Number of fetch target inserted to the FTQ per cycle (Count)
system.node0.cpus0.bac.ftNumber::min_value            0                       # Number of fetch target inserted to the FTQ per cycle (Count)
system.node0.cpus0.bac.ftNumber::max_value            0                       # Number of fetch target inserted to the FTQ per cycle (Count)
system.node0.cpus0.bac.ftNumber::total              0                       # Number of fetch target inserted to the FTQ per cycle (Count)
system.node0.cpus0.branchPred.lookups_0::NoBranch          481      0.05%      0.05% # Number of BP lookups (Count)
system.node0.cpus0.branchPred.lookups_0::Return        28801      2.72%      2.77% # Number of BP lookups (Count)
system.node0.cpus0.branchPred.lookups_0::CallDirect        28223      2.67%      5.43% # Number of BP lookups (Count)
system.node0.cpus0.branchPred.lookups_0::CallIndirect          896      0.08%      5.51% # Number of BP lookups (Count)
system.node0.cpus0.branchPred.lookups_0::DirectCond       948182     89.54%     95.05% # Number of BP lookups (Count)
system.node0.cpus0.branchPred.lookups_0::DirectUncond        35947      3.39%     98.45% # Number of BP lookups (Count)
system.node0.cpus0.branchPred.lookups_0::IndirectCond            0      0.00%     98.45% # Number of BP lookups (Count)
system.node0.cpus0.branchPred.lookups_0::IndirectUncond        16432      1.55%    100.00% # Number of BP lookups (Count)
system.node0.cpus0.branchPred.lookups_0::total      1058962                       # Number of BP lookups (Count)
system.node0.cpus0.branchPred.squashes_0::NoBranch          465      0.39%      0.39% # Number of branches that got squashed (completely removed) as an earlier branch was mispredicted. (Count)
system.node0.cpus0.branchPred.squashes_0::Return         6663      5.54%      5.93% # Number of branches that got squashed (completely removed) as an earlier branch was mispredicted. (Count)
system.node0.cpus0.branchPred.squashes_0::CallDirect         6430      5.35%     11.28% # Number of branches that got squashed (completely removed) as an earlier branch was mispredicted. (Count)
system.node0.cpus0.branchPred.squashes_0::CallIndirect          546      0.45%     11.74% # Number of branches that got squashed (completely removed) as an earlier branch was mispredicted. (Count)
system.node0.cpus0.branchPred.squashes_0::DirectCond        95474     79.45%     91.19% # Number of branches that got squashed (completely removed) as an earlier branch was mispredicted. (Count)
system.node0.cpus0.branchPred.squashes_0::DirectUncond         5077      4.22%     95.41% # Number of branches that got squashed (completely removed) as an earlier branch was mispredicted. (Count)
system.node0.cpus0.branchPred.squashes_0::IndirectCond            0      0.00%     95.41% # Number of branches that got squashed (completely removed) as an earlier branch was mispredicted. (Count)
system.node0.cpus0.branchPred.squashes_0::IndirectUncond         5515      4.59%    100.00% # Number of branches that got squashed (completely removed) as an earlier branch was mispredicted. (Count)
system.node0.cpus0.branchPred.squashes_0::total       120170                       # Number of branches that got squashed (completely removed) as an earlier branch was mispredicted. (Count)
system.node0.cpus0.branchPred.corrected_0::NoBranch           61      0.18%      0.18% # Number of branches that got corrected but not yet commited. Branches get corrected by decode or after execute. Also a branch misprediction can be detected out-of-order. Therefore, a corrected branch might not end up beeing committed in case an even earlier branch was mispredicted (Count)
system.node0.cpus0.branchPred.corrected_0::Return            3      0.01%      0.19% # Number of branches that got corrected but not yet commited. Branches get corrected by decode or after execute. Also a branch misprediction can be detected out-of-order. Therefore, a corrected branch might not end up beeing committed in case an even earlier branch was mispredicted (Count)
system.node0.cpus0.branchPred.corrected_0::CallDirect         1225      3.68%      3.87% # Number of branches that got corrected but not yet commited. Branches get corrected by decode or after execute. Also a branch misprediction can be detected out-of-order. Therefore, a corrected branch might not end up beeing committed in case an even earlier branch was mispredicted (Count)
system.node0.cpus0.branchPred.corrected_0::CallIndirect          173      0.52%      4.39% # Number of branches that got corrected but not yet commited. Branches get corrected by decode or after execute. Also a branch misprediction can be detected out-of-order. Therefore, a corrected branch might not end up beeing committed in case an even earlier branch was mispredicted (Count)
system.node0.cpus0.branchPred.corrected_0::DirectCond        30459     91.48%     95.88% # Number of branches that got corrected but not yet commited. Branches get corrected by decode or after execute. Also a branch misprediction can be detected out-of-order. Therefore, a corrected branch might not end up beeing committed in case an even earlier branch was mispredicted (Count)
system.node0.cpus0.branchPred.corrected_0::DirectUncond          743      2.23%     98.11% # Number of branches that got corrected but not yet commited. Branches get corrected by decode or after execute. Also a branch misprediction can be detected out-of-order. Therefore, a corrected branch might not end up beeing committed in case an even earlier branch was mispredicted (Count)
system.node0.cpus0.branchPred.corrected_0::IndirectCond            0      0.00%     98.11% # Number of branches that got corrected but not yet commited. Branches get corrected by decode or after execute. Also a branch misprediction can be detected out-of-order. Therefore, a corrected branch might not end up beeing committed in case an even earlier branch was mispredicted (Count)
system.node0.cpus0.branchPred.corrected_0::IndirectUncond          630      1.89%    100.00% # Number of branches that got corrected but not yet commited. Branches get corrected by decode or after execute. Also a branch misprediction can be detected out-of-order. Therefore, a corrected branch might not end up beeing committed in case an even earlier branch was mispredicted (Count)
system.node0.cpus0.branchPred.corrected_0::total        33294                       # Number of branches that got corrected but not yet commited. Branches get corrected by decode or after execute. Also a branch misprediction can be detected out-of-order. Therefore, a corrected branch might not end up beeing committed in case an even earlier branch was mispredicted (Count)
system.node0.cpus0.branchPred.earlyResteers_0::NoBranch            0      0.00%      0.00% # Number of branches that got redirected after decode. (Count)
system.node0.cpus0.branchPred.earlyResteers_0::Return            0      0.00%      0.00% # Number of branches that got redirected after decode. (Count)
system.node0.cpus0.branchPred.earlyResteers_0::CallDirect         1225     61.10%     61.10% # Number of branches that got redirected after decode. (Count)
system.node0.cpus0.branchPred.earlyResteers_0::CallIndirect            0      0.00%     61.10% # Number of branches that got redirected after decode. (Count)
system.node0.cpus0.branchPred.earlyResteers_0::DirectCond           37      1.85%     62.94% # Number of branches that got redirected after decode. (Count)
system.node0.cpus0.branchPred.earlyResteers_0::DirectUncond          743     37.06%    100.00% # Number of branches that got redirected after decode. (Count)
system.node0.cpus0.branchPred.earlyResteers_0::IndirectCond            0      0.00%    100.00% # Number of branches that got redirected after decode. (Count)
system.node0.cpus0.branchPred.earlyResteers_0::IndirectUncond            0      0.00%    100.00% # Number of branches that got redirected after decode. (Count)
system.node0.cpus0.branchPred.earlyResteers_0::total         2005                       # Number of branches that got redirected after decode. (Count)
system.node0.cpus0.branchPred.committed_0::NoBranch           16      0.00%      0.00% # Number of branches finally committed  (Count)
system.node0.cpus0.branchPred.committed_0::Return        22138      2.36%      2.36% # Number of branches finally committed  (Count)
system.node0.cpus0.branchPred.committed_0::CallDirect        21793      2.32%      4.68% # Number of branches finally committed  (Count)
system.node0.cpus0.branchPred.committed_0::CallIndirect          350      0.04%      4.72% # Number of branches finally committed  (Count)
system.node0.cpus0.branchPred.committed_0::DirectCond       852708     90.83%     95.55% # Number of branches finally committed  (Count)
system.node0.cpus0.branchPred.committed_0::DirectUncond        30870      3.29%     98.84% # Number of branches finally committed  (Count)
system.node0.cpus0.branchPred.committed_0::IndirectCond            0      0.00%     98.84% # Number of branches finally committed  (Count)
system.node0.cpus0.branchPred.committed_0::IndirectUncond        10917      1.16%    100.00% # Number of branches finally committed  (Count)
system.node0.cpus0.branchPred.committed_0::total       938792                       # Number of branches finally committed  (Count)
system.node0.cpus0.branchPred.mispredicted_0::NoBranch           16      0.05%      0.05% # Number of committed branches that were mispredicted. (Count)
system.node0.cpus0.branchPred.mispredicted_0::Return            0      0.00%      0.05% # Number of committed branches that were mispredicted. (Count)
system.node0.cpus0.branchPred.mispredicted_0::CallDirect          728      2.31%      2.37% # Number of committed branches that were mispredicted. (Count)
system.node0.cpus0.branchPred.mispredicted_0::CallIndirect           93      0.30%      2.66% # Number of committed branches that were mispredicted. (Count)
system.node0.cpus0.branchPred.mispredicted_0::DirectCond        29624     94.20%     96.86% # Number of committed branches that were mispredicted. (Count)
system.node0.cpus0.branchPred.mispredicted_0::DirectUncond          444      1.41%     98.27% # Number of committed branches that were mispredicted. (Count)
system.node0.cpus0.branchPred.mispredicted_0::IndirectCond            0      0.00%     98.27% # Number of committed branches that were mispredicted. (Count)
system.node0.cpus0.branchPred.mispredicted_0::IndirectUncond          543      1.73%    100.00% # Number of committed branches that were mispredicted. (Count)
system.node0.cpus0.branchPred.mispredicted_0::total        31448                       # Number of committed branches that were mispredicted. (Count)
system.node0.cpus0.branchPred.mispredictDueToPredictor_0::NoBranch           16      0.06%      0.06% # Number of committed branches that were mispredicted by the predictor. (Count)
system.node0.cpus0.branchPred.mispredictDueToPredictor_0::Return            0      0.00%      0.06% # Number of committed branches that were mispredicted by the predictor. (Count)
system.node0.cpus0.branchPred.mispredictDueToPredictor_0::CallDirect            0      0.00%      0.06% # Number of committed branches that were mispredicted by the predictor. (Count)
system.node0.cpus0.branchPred.mispredictDueToPredictor_0::CallIndirect            0      0.00%      0.06% # Number of committed branches that were mispredicted by the predictor. (Count)
system.node0.cpus0.branchPred.mispredictDueToPredictor_0::DirectCond        27999     99.94%    100.00% # Number of committed branches that were mispredicted by the predictor. (Count)
system.node0.cpus0.branchPred.mispredictDueToPredictor_0::DirectUncond            0      0.00%    100.00% # Number of committed branches that were mispredicted by the predictor. (Count)
system.node0.cpus0.branchPred.mispredictDueToPredictor_0::IndirectCond            0      0.00%    100.00% # Number of committed branches that were mispredicted by the predictor. (Count)
system.node0.cpus0.branchPred.mispredictDueToPredictor_0::IndirectUncond            0      0.00%    100.00% # Number of committed branches that were mispredicted by the predictor. (Count)
system.node0.cpus0.branchPred.mispredictDueToPredictor_0::total        28015                       # Number of committed branches that were mispredicted by the predictor. (Count)
system.node0.cpus0.branchPred.mispredictDueToBTBMiss_0::NoBranch            0      0.00%      0.00% # Number of committed branches that were mispredicted because of a BTB miss. (Count)
system.node0.cpus0.branchPred.mispredictDueToBTBMiss_0::Return            0      0.00%      0.00% # Number of committed branches that were mispredicted because of a BTB miss. (Count)
system.node0.cpus0.branchPred.mispredictDueToBTBMiss_0::CallDirect          728     21.21%     21.21% # Number of committed branches that were mispredicted because of a BTB miss. (Count)
system.node0.cpus0.branchPred.mispredictDueToBTBMiss_0::CallIndirect           93      2.71%     23.91% # Number of committed branches that were mispredicted because of a BTB miss. (Count)
system.node0.cpus0.branchPred.mispredictDueToBTBMiss_0::DirectCond         1625     47.33%     71.25% # Number of committed branches that were mispredicted because of a BTB miss. (Count)
system.node0.cpus0.branchPred.mispredictDueToBTBMiss_0::DirectUncond          444     12.93%     84.18% # Number of committed branches that were mispredicted because of a BTB miss. (Count)
system.node0.cpus0.branchPred.mispredictDueToBTBMiss_0::IndirectCond            0      0.00%     84.18% # Number of committed branches that were mispredicted because of a BTB miss. (Count)
system.node0.cpus0.branchPred.mispredictDueToBTBMiss_0::IndirectUncond          543     15.82%    100.00% # Number of committed branches that were mispredicted because of a BTB miss. (Count)
system.node0.cpus0.branchPred.mispredictDueToBTBMiss_0::total         3433                       # Number of committed branches that were mispredicted because of a BTB miss. (Count)
system.node0.cpus0.branchPred.targetProvider_0::NoTarget       331414     31.30%     31.30% # The component providing the target for taken branches (Count)
system.node0.cpus0.branchPred.targetProvider_0::BTB       686953     64.87%     96.17% # The component providing the target for taken branches (Count)
system.node0.cpus0.branchPred.targetProvider_0::RAS        28801      2.72%     98.89% # The component providing the target for taken branches (Count)
system.node0.cpus0.branchPred.targetProvider_0::Indirect        11794      1.11%    100.00% # The component providing the target for taken branches (Count)
system.node0.cpus0.branchPred.targetProvider_0::total      1058962                       # The component providing the target for taken branches (Count)
system.node0.cpus0.branchPred.targetWrong_0::NoBranch         9204     27.90%     27.90% # Number of branches where the target was incorrect or not available at prediction time. (Count)
system.node0.cpus0.branchPred.targetWrong_0::Return        23635     71.63%     99.53% # Number of branches where the target was incorrect or not available at prediction time. (Count)
system.node0.cpus0.branchPred.targetWrong_0::CallDirect            3      0.01%     99.54% # Number of branches where the target was incorrect or not available at prediction time. (Count)
system.node0.cpus0.branchPred.targetWrong_0::CallIndirect          153      0.46%    100.00% # Number of branches where the target was incorrect or not available at prediction time. (Count)
system.node0.cpus0.branchPred.targetWrong_0::DirectCond            0      0.00%    100.00% # Number of branches where the target was incorrect or not available at prediction time. (Count)
system.node0.cpus0.branchPred.targetWrong_0::DirectUncond            0      0.00%    100.00% # Number of branches where the target was incorrect or not available at prediction time. (Count)
system.node0.cpus0.branchPred.targetWrong_0::IndirectCond            0      0.00%    100.00% # Number of branches where the target was incorrect or not available at prediction time. (Count)
system.node0.cpus0.branchPred.targetWrong_0::IndirectUncond            0      0.00%    100.00% # Number of branches where the target was incorrect or not available at prediction time. (Count)
system.node0.cpus0.branchPred.targetWrong_0::total        32995                       # Number of branches where the target was incorrect or not available at prediction time. (Count)
system.node0.cpus0.branchPred.condPredicted       948182                       # Number of conditional branches predicted (Count)
system.node0.cpus0.branchPred.condPredictedTaken       629419                       # Number of conditional branches predicted as taken (Count)
system.node0.cpus0.branchPred.condIncorrect        31448                       # Number of conditional branches incorrect (Count)
system.node0.cpus0.branchPred.predTakenBTBMiss         2831                       # Number of branches predicted taken but missed in BTB (Count)
system.node0.cpus0.branchPred.BTBLookups      1058962                       # Number of BTB lookups (Count)
system.node0.cpus0.branchPred.BTBUpdates         8762                       # Number of BTB updates (Count)
system.node0.cpus0.branchPred.BTBHits          839672                       # Number of BTB hits (Count)
system.node0.cpus0.branchPred.BTBHitRatio     0.792920                       # BTB Hit Ratio (Ratio)
system.node0.cpus0.branchPred.BTBMispredicted         3827                       # Number BTB mispredictions. No target found or target wrong (Count)
system.node0.cpus0.branchPred.indirectLookups        17328                       # Number of indirect predictor lookups. (Count)
system.node0.cpus0.branchPred.indirectHits        11794                       # Number of indirect target hits. (Count)
system.node0.cpus0.branchPred.indirectMisses         5534                       # Number of indirect misses. (Count)
system.node0.cpus0.branchPred.indirectMispredicted            0                       # Number of mispredicted indirect branches. (Count)
system.node0.cpus0.branchPred.btb.lookups::NoBranch          481      0.05%      0.05% # Number of BTB lookups (Count)
system.node0.cpus0.branchPred.btb.lookups::Return        28801      2.72%      2.77% # Number of BTB lookups (Count)
system.node0.cpus0.branchPred.btb.lookups::CallDirect        28223      2.67%      5.43% # Number of BTB lookups (Count)
system.node0.cpus0.branchPred.btb.lookups::CallIndirect          896      0.08%      5.51% # Number of BTB lookups (Count)
system.node0.cpus0.branchPred.btb.lookups::DirectCond       948182     89.54%     95.05% # Number of BTB lookups (Count)
system.node0.cpus0.branchPred.btb.lookups::DirectUncond        35947      3.39%     98.45% # Number of BTB lookups (Count)
system.node0.cpus0.branchPred.btb.lookups::IndirectCond            0      0.00%     98.45% # Number of BTB lookups (Count)
system.node0.cpus0.branchPred.btb.lookups::IndirectUncond        16432      1.55%    100.00% # Number of BTB lookups (Count)
system.node0.cpus0.branchPred.btb.lookups::total      1058962                       # Number of BTB lookups (Count)
system.node0.cpus0.branchPred.btb.misses::NoBranch           94      0.04%      0.04% # Number of BTB misses (Count)
system.node0.cpus0.branchPred.btb.misses::Return        28801     13.13%     13.18% # Number of BTB misses (Count)
system.node0.cpus0.branchPred.btb.misses::CallDirect         1803      0.82%     14.00% # Number of BTB misses (Count)
system.node0.cpus0.branchPred.btb.misses::CallIndirect          896      0.41%     14.41% # Number of BTB misses (Count)
system.node0.cpus0.branchPred.btb.misses::DirectCond       170191     77.61%     92.02% # Number of BTB misses (Count)
system.node0.cpus0.branchPred.btb.misses::DirectUncond         1073      0.49%     92.51% # Number of BTB misses (Count)
system.node0.cpus0.branchPred.btb.misses::IndirectCond            0      0.00%     92.51% # Number of BTB misses (Count)
system.node0.cpus0.branchPred.btb.misses::IndirectUncond        16432      7.49%    100.00% # Number of BTB misses (Count)
system.node0.cpus0.branchPred.btb.misses::total       219290                       # Number of BTB misses (Count)
system.node0.cpus0.branchPred.btb.updates::NoBranch           61      0.70%      0.70% # Number of BTB updates (Count)
system.node0.cpus0.branchPred.btb.updates::Return            0      0.00%      0.70% # Number of BTB updates (Count)
system.node0.cpus0.branchPred.btb.updates::CallDirect         1225     13.98%     14.68% # Number of BTB updates (Count)
system.node0.cpus0.branchPred.btb.updates::CallIndirect            0      0.00%     14.68% # Number of BTB updates (Count)
system.node0.cpus0.branchPred.btb.updates::DirectCond         6733     76.84%     91.52% # Number of BTB updates (Count)
system.node0.cpus0.branchPred.btb.updates::DirectUncond          743      8.48%    100.00% # Number of BTB updates (Count)
system.node0.cpus0.branchPred.btb.updates::IndirectCond            0      0.00%    100.00% # Number of BTB updates (Count)
system.node0.cpus0.branchPred.btb.updates::IndirectUncond            0      0.00%    100.00% # Number of BTB updates (Count)
system.node0.cpus0.branchPred.btb.updates::total         8762                       # Number of BTB updates (Count)
system.node0.cpus0.branchPred.btb.mispredict::NoBranch           61      0.70%      0.70% # Number of BTB mispredictions. No target found or target wrong. (Count)
system.node0.cpus0.branchPred.btb.mispredict::Return            0      0.00%      0.70% # Number of BTB mispredictions. No target found or target wrong. (Count)
system.node0.cpus0.branchPred.btb.mispredict::CallDirect         1225     13.98%     14.68% # Number of BTB mispredictions. No target found or target wrong. (Count)
system.node0.cpus0.branchPred.btb.mispredict::CallIndirect            0      0.00%     14.68% # Number of BTB mispredictions. No target found or target wrong. (Count)
system.node0.cpus0.branchPred.btb.mispredict::DirectCond         6733     76.84%     91.52% # Number of BTB mispredictions. No target found or target wrong. (Count)
system.node0.cpus0.branchPred.btb.mispredict::DirectUncond          743      8.48%    100.00% # Number of BTB mispredictions. No target found or target wrong. (Count)
system.node0.cpus0.branchPred.btb.mispredict::IndirectCond            0      0.00%    100.00% # Number of BTB mispredictions. No target found or target wrong. (Count)
system.node0.cpus0.branchPred.btb.mispredict::IndirectUncond            0      0.00%    100.00% # Number of BTB mispredictions. No target found or target wrong. (Count)
system.node0.cpus0.branchPred.btb.mispredict::total         8762                       # Number of BTB mispredictions. No target found or target wrong. (Count)
system.node0.cpus0.branchPred.btb.power_state.pwrStateResidencyTicks::UNDEFINED   2549033000                       # Cumulative time (in ticks) in various power states (Tick)
system.node0.cpus0.branchPred.indirectBranchPred.lookups        17328                       # Number of lookups (Count)
system.node0.cpus0.branchPred.indirectBranchPred.hits        11794                       # Number of hits of a tag (Count)
system.node0.cpus0.branchPred.indirectBranchPred.misses         5534                       # Number of misses (Count)
system.node0.cpus0.branchPred.indirectBranchPred.targetRecords          803                       # Number of targets that where recorded/installed in the cache (Count)
system.node0.cpus0.branchPred.indirectBranchPred.indirectRecords        18131                       # Number of indirect branches/calls recorded in the indirect hist (Count)
system.node0.cpus0.branchPred.indirectBranchPred.speculativeOverflows           11                       # Number of times more than the allowed capacity for speculative branches/calls where in flight and destroy the path history (Count)
system.node0.cpus0.branchPred.ras.pushes        35782                       # Number of times a PC was pushed onto the RAS (Count)
system.node0.cpus0.branchPred.ras.pops          35777                       # Number of times a PC was poped from the RAS (Count)
system.node0.cpus0.branchPred.ras.squashes        13639                       # Number of times the stack operation was squashed due to wrong speculation. (Count)
system.node0.cpus0.branchPred.ras.used          22138                       # Number of times the RAS is the provider (Count)
system.node0.cpus0.branchPred.ras.correct        22138                       # Number of times the RAS is the provider and the prediction is correct (Count)
system.node0.cpus0.branchPred.ras.incorrect            0                       # Number of times the RAS is the provider and the prediction is wrong (Count)
system.node0.cpus0.clk_domain.clock               250                       # Clock period in ticks (Tick)
system.node0.cpus0.clk_domain.voltage_domain.voltage            1                       # Voltage in Volts (Volt)
system.node0.cpus0.commit.status::running      8236275     99.90%     99.90% # Number of cycles commit is running (Cycle)
system.node0.cpus0.commit.status::idle              1      0.00%     99.90% # Number of cycles commit is idle (Cycle)
system.node0.cpus0.commit.status::trapPending         8399      0.10%    100.00% # Number of cycles commit is processing a trap (Cycle)
system.node0.cpus0.commit.commitSquashedInsts       998990                       # The number of squashed insts skipped by commit (Count)
system.node0.cpus0.commit.commitNonSpecStalls         3514                       # The number of times commit has been forced to stall to communicate backwards (Count)
system.node0.cpus0.commit.branchMispredicts        31346                       # The number of times a branch was mispredicted (Count)
system.node0.cpus0.commit.numCommittedDist::samples      8211998                       # Number of insts commited each cycle (Count)
system.node0.cpus0.commit.numCommittedDist::mean     2.644765                       # Number of insts commited each cycle (Count)
system.node0.cpus0.commit.numCommittedDist::stdev     3.347845                       # Number of insts commited each cycle (Count)
system.node0.cpus0.commit.numCommittedDist::underflows            0      0.00%      0.00% # Number of insts commited each cycle (Count)
system.node0.cpus0.commit.numCommittedDist::0      4184445     50.96%     50.96% # Number of insts commited each cycle (Count)
system.node0.cpus0.commit.numCommittedDist::1       533026      6.49%     57.45% # Number of insts commited each cycle (Count)
system.node0.cpus0.commit.numCommittedDist::2       610482      7.43%     64.88% # Number of insts commited each cycle (Count)
system.node0.cpus0.commit.numCommittedDist::3       217470      2.65%     67.53% # Number of insts commited each cycle (Count)
system.node0.cpus0.commit.numCommittedDist::4       202607      2.47%     70.00% # Number of insts commited each cycle (Count)
system.node0.cpus0.commit.numCommittedDist::5       216380      2.63%     72.63% # Number of insts commited each cycle (Count)
system.node0.cpus0.commit.numCommittedDist::6       231052      2.81%     75.44% # Number of insts commited each cycle (Count)
system.node0.cpus0.commit.numCommittedDist::7        98520      1.20%     76.64% # Number of insts commited each cycle (Count)
system.node0.cpus0.commit.numCommittedDist::8      1918016     23.36%    100.00% # Number of insts commited each cycle (Count)
system.node0.cpus0.commit.numCommittedDist::overflows            0      0.00%    100.00% # Number of insts commited each cycle (Count)
system.node0.cpus0.commit.numCommittedDist::min_value            0                       # Number of insts commited each cycle (Count)
system.node0.cpus0.commit.numCommittedDist::max_value            8                       # Number of insts commited each cycle (Count)
system.node0.cpus0.commit.numCommittedDist::total      8211998                       # Number of insts commited each cycle (Count)
system.node0.cpus0.commit.amos                      0                       # Number of atomic instructions committed (Count)
system.node0.cpus0.commit.membars                2320                       # Number of memory barriers committed (Count)
system.node0.cpus0.commit.committedInstType_0::No_OpClass        51710      0.24%      0.24% # Class of committed instruction (Count)
system.node0.cpus0.commit.committedInstType_0::IntAlu      7712644     35.51%     35.75% # Class of committed instruction (Count)
system.node0.cpus0.commit.committedInstType_0::IntMult       118238      0.54%     36.29% # Class of committed instruction (Count)
system.node0.cpus0.commit.committedInstType_0::IntDiv         3242      0.01%     36.31% # Class of committed instruction (Count)
system.node0.cpus0.commit.committedInstType_0::FloatAdd       148846      0.69%     36.99% # Class of committed instruction (Count)
system.node0.cpus0.commit.committedInstType_0::FloatCmp            0      0.00%     36.99% # Class of committed instruction (Count)
system.node0.cpus0.commit.committedInstType_0::FloatCvt            0      0.00%     36.99% # Class of committed instruction (Count)
system.node0.cpus0.commit.committedInstType_0::FloatMult            0      0.00%     36.99% # Class of committed instruction (Count)
system.node0.cpus0.commit.committedInstType_0::FloatMultAcc            0      0.00%     36.99% # Class of committed instruction (Count)
system.node0.cpus0.commit.committedInstType_0::FloatDiv            0      0.00%     36.99% # Class of committed instruction (Count)
system.node0.cpus0.commit.committedInstType_0::FloatMisc            0      0.00%     36.99% # Class of committed instruction (Count)
system.node0.cpus0.commit.committedInstType_0::FloatSqrt            0      0.00%     36.99% # Class of committed instruction (Count)
system.node0.cpus0.commit.committedInstType_0::SimdAdd          272      0.00%     37.00% # Class of committed instruction (Count)
system.node0.cpus0.commit.committedInstType_0::SimdAddAcc            0      0.00%     37.00% # Class of committed instruction (Count)
system.node0.cpus0.commit.committedInstType_0::SimdAlu       138638      0.64%     37.63% # Class of committed instruction (Count)
system.node0.cpus0.commit.committedInstType_0::SimdCmp           16      0.00%     37.63% # Class of committed instruction (Count)
system.node0.cpus0.commit.committedInstType_0::SimdCvt         1372      0.01%     37.64% # Class of committed instruction (Count)
system.node0.cpus0.commit.committedInstType_0::SimdMisc        78371      0.36%     38.00% # Class of committed instruction (Count)
system.node0.cpus0.commit.committedInstType_0::SimdMult            0      0.00%     38.00% # Class of committed instruction (Count)
system.node0.cpus0.commit.committedInstType_0::SimdMultAcc            0      0.00%     38.00% # Class of committed instruction (Count)
system.node0.cpus0.commit.committedInstType_0::SimdMatMultAcc            0      0.00%     38.00% # Class of committed instruction (Count)
system.node0.cpus0.commit.committedInstType_0::SimdShift          918      0.00%     38.01% # Class of committed instruction (Count)
system.node0.cpus0.commit.committedInstType_0::SimdShiftAcc            0      0.00%     38.01% # Class of committed instruction (Count)
system.node0.cpus0.commit.committedInstType_0::SimdDiv            0      0.00%     38.01% # Class of committed instruction (Count)
system.node0.cpus0.commit.committedInstType_0::SimdSqrt            0      0.00%     38.01% # Class of committed instruction (Count)
system.node0.cpus0.commit.committedInstType_0::SimdFloatAdd      4383093     20.18%     58.19% # Class of committed instruction (Count)
system.node0.cpus0.commit.committedInstType_0::SimdFloatAlu            0      0.00%     58.19% # Class of committed instruction (Count)
system.node0.cpus0.commit.committedInstType_0::SimdFloatCmp        69636      0.32%     58.51% # Class of committed instruction (Count)
system.node0.cpus0.commit.committedInstType_0::SimdFloatCvt       105660      0.49%     58.99% # Class of committed instruction (Count)
system.node0.cpus0.commit.committedInstType_0::SimdFloatDiv           11      0.00%     58.99% # Class of committed instruction (Count)
system.node0.cpus0.commit.committedInstType_0::SimdFloatMisc            0      0.00%     58.99% # Class of committed instruction (Count)
system.node0.cpus0.commit.committedInstType_0::SimdFloatMult      1153959      5.31%     64.31% # Class of committed instruction (Count)
system.node0.cpus0.commit.committedInstType_0::SimdFloatMultAcc            0      0.00%     64.31% # Class of committed instruction (Count)
system.node0.cpus0.commit.committedInstType_0::SimdFloatMatMultAcc            0      0.00%     64.31% # Class of committed instruction (Count)
system.node0.cpus0.commit.committedInstType_0::SimdFloatSqrt            4      0.00%     64.31% # Class of committed instruction (Count)
system.node0.cpus0.commit.committedInstType_0::SimdReduceAdd            0      0.00%     64.31% # Class of committed instruction (Count)
system.node0.cpus0.commit.committedInstType_0::SimdReduceAlu            0      0.00%     64.31% # Class of committed instruction (Count)
system.node0.cpus0.commit.committedInstType_0::SimdReduceCmp            0      0.00%     64.31% # Class of committed instruction (Count)
system.node0.cpus0.commit.committedInstType_0::SimdFloatReduceAdd            0      0.00%     64.31% # Class of committed instruction (Count)
system.node0.cpus0.commit.committedInstType_0::SimdFloatReduceCmp            0      0.00%     64.31% # Class of committed instruction (Count)
system.node0.cpus0.commit.committedInstType_0::SimdAes            0      0.00%     64.31% # Class of committed instruction (Count)
system.node0.cpus0.commit.committedInstType_0::SimdAesMix            0      0.00%     64.31% # Class of committed instruction (Count)
system.node0.cpus0.commit.committedInstType_0::SimdSha1Hash            0      0.00%     64.31% # Class of committed instruction (Count)
system.node0.cpus0.commit.committedInstType_0::SimdSha1Hash2            0      0.00%     64.31% # Class of committed instruction (Count)
system.node0.cpus0.commit.committedInstType_0::SimdSha256Hash            0      0.00%     64.31% # Class of committed instruction (Count)
system.node0.cpus0.commit.committedInstType_0::SimdSha256Hash2            0      0.00%     64.31% # Class of committed instruction (Count)
system.node0.cpus0.commit.committedInstType_0::SimdShaSigma2            0      0.00%     64.31% # Class of committed instruction (Count)
system.node0.cpus0.commit.committedInstType_0::SimdShaSigma3            0      0.00%     64.31% # Class of committed instruction (Count)
system.node0.cpus0.commit.committedInstType_0::SimdSha3            0      0.00%     64.31% # Class of committed instruction (Count)
system.node0.cpus0.commit.committedInstType_0::SimdSm4e            0      0.00%     64.31% # Class of committed instruction (Count)
system.node0.cpus0.commit.committedInstType_0::SimdCrc            0      0.00%     64.31% # Class of committed instruction (Count)
system.node0.cpus0.commit.committedInstType_0::SimdPredAlu            0      0.00%     64.31% # Class of committed instruction (Count)
system.node0.cpus0.commit.committedInstType_0::SimdDotProd            0      0.00%     64.31% # Class of committed instruction (Count)
system.node0.cpus0.commit.committedInstType_0::Matrix            0      0.00%     64.31% # Class of committed instruction (Count)
system.node0.cpus0.commit.committedInstType_0::MatrixMov            0      0.00%     64.31% # Class of committed instruction (Count)
system.node0.cpus0.commit.committedInstType_0::MatrixOP            0      0.00%     64.31% # Class of committed instruction (Count)
system.node0.cpus0.commit.committedInstType_0::MemRead       658720      3.03%     67.34% # Class of committed instruction (Count)
system.node0.cpus0.commit.committedInstType_0::MemWrite       267964      1.23%     68.57% # Class of committed instruction (Count)
[...]
system.node1.mem_ctrl.avgRdBWSys           0.00000000                       # Average system read bandwidth in Byte/s ((Byte/Second))
system.node1.mem_ctrl.avgWrBWSys           0.00000000                       # Average system write bandwidth in Byte/s ((Byte/Second))
system.node1.mem_ctrl.totGap                        0                       # Total gap between requests (Tick)
system.node1.mem_ctrl.avgGap                      nan                       # Average gap between requests ((Tick/Count))
system.node1.mem_ctrl.dram.readBursts               0                       # Number of DRAM read bursts (Count)
system.node1.mem_ctrl.dram.writeBursts              0                       # Number of DRAM write bursts (Count)
system.node1.mem_ctrl.dram.perBankRdBursts::0            0                       # Per bank write bursts (Count)
system.node1.mem_ctrl.dram.perBankRdBursts::1            0                       # Per bank write bursts (Count)
system.node1.mem_ctrl.dram.perBankRdBursts::2            0                       # Per bank write bursts (Count)
system.node1.mem_ctrl.dram.perBankRdBursts::3            0                       # Per bank write bursts (Count)
system.node1.mem_ctrl.dram.perBankRdBursts::4            0                       # Per bank write bursts (Count)
system.node1.mem_ctrl.dram.perBankRdBursts::5            0                       # Per bank write bursts (Count)
system.node1.mem_ctrl.dram.perBankRdBursts::6            0                       # Per bank write bursts (Count)
system.node1.mem_ctrl.dram.perBankRdBursts::7            0                       # Per bank write bursts (Count)
system.node1.mem_ctrl.dram.perBankWrBursts::0            0                       # Per bank write bursts (Count)
system.node1.mem_ctrl.dram.perBankWrBursts::1            0                       # Per bank write bursts (Count)
system.node1.mem_ctrl.dram.perBankWrBursts::2            0                       # Per bank write bursts (Count)
system.node1.mem_ctrl.dram.perBankWrBursts::3            0                       # Per bank write bursts (Count)
system.node1.mem_ctrl.dram.perBankWrBursts::4            0                       # Per bank write bursts (Count)
system.node1.mem_ctrl.dram.perBankWrBursts::5            0                       # Per bank write bursts (Count)
system.node1.mem_ctrl.dram.perBankWrBursts::6            0                       # Per bank write bursts (Count)
system.node1.mem_ctrl.dram.perBankWrBursts::7            0                       # Per bank write bursts (Count)
system.node1.mem_ctrl.dram.totQLat                  0                       # Total ticks spent queuing (Tick)
system.node1.mem_ctrl.dram.totBusLat                0                       # Total ticks spent in databus transfers (Tick)
system.node1.mem_ctrl.dram.totMemAccLat             0                       # Total ticks spent from burst creation until serviced by the DRAM (Tick)
system.node1.mem_ctrl.dram.avgQLat                nan                       # Average queueing delay per DRAM burst ((Tick/Count))
system.node1.mem_ctrl.dram.avgBusLat              nan                       # Average bus latency per DRAM burst ((Tick/Count))
system.node1.mem_ctrl.dram.avgMemAccLat           nan                       # Average memory access latency per DRAM burst ((Tick/Count))
system.node1.mem_ctrl.dram.readRowHits              0                       # Number of row buffer hits during reads (Count)
system.node1.mem_ctrl.dram.writeRowHits             0                       # Number of row buffer hits during writes (Count)
system.node1.mem_ctrl.dram.readRowHitRate          nan                       # Row buffer hit rate for reads (Ratio)
system.node1.mem_ctrl.dram.writeRowHitRate          nan                       # Row buffer hit rate for writes (Ratio)
system.node1.mem_ctrl.dram.dramBytesRead            0                       # Total bytes read (Byte)
system.node1.mem_ctrl.dram.dramBytesWritten            0                       # Total bytes written (Byte)
system.node1.mem_ctrl.dram.avgRdBW                  0                       # Average DRAM read bandwidth in MiBytes/s ((Byte/Second))
system.node1.mem_ctrl.dram.avgWrBW                  0                       # Average DRAM write bandwidth in MiBytes/s ((Byte/Second))
system.node1.mem_ctrl.dram.peakBW            12800.00                       # Theoretical peak bandwidth in MiByte/s ((Byte/Second))
system.node1.mem_ctrl.dram.busUtil               0.00                       # Data bus utilization in percentage (Ratio)
system.node1.mem_ctrl.dram.busUtilRead           0.00                       # Data bus utilization in percentage for reads (Ratio)
system.node1.mem_ctrl.dram.busUtilWrite          0.00                       # Data bus utilization in percentage for writes (Ratio)
system.node1.mem_ctrl.dram.pageHitRate            nan                       # Row buffer hit rate, read and write combined (Ratio)
system.node1.mem_ctrl.dram.power_state.pwrStateResidencyTicks::UNDEFINED   2549033000                       # Cumulative time (in ticks) in various power states (Tick)
system.node1.mem_ctrl.dram.rank0.actEnergy            0                       # Energy for activate commands per rank (pJ) (Joule)
system.node1.mem_ctrl.dram.rank0.preEnergy            0                       # Energy for precharge commands per rank (pJ) (Joule)
system.node1.mem_ctrl.dram.rank0.readEnergy            0                       # Energy for read commands per rank (pJ) (Joule)
system.node1.mem_ctrl.dram.rank0.writeEnergy            0                       # Energy for write commands per rank (pJ) (Joule)
system.node1.mem_ctrl.dram.rank0.refreshEnergy 200987280.000000                       # Energy for refresh commands per rank (pJ) (Joule)
system.node1.mem_ctrl.dram.rank0.actBackEnergy     36718830                       # Energy for active background per rank (pJ) (Joule)
system.node1.mem_ctrl.dram.rank0.preBackEnergy    947907840                       # Energy for precharge background per rank (pJ) (Joule)
system.node1.mem_ctrl.dram.rank0.actPowerDownEnergy            0                       # Energy for active power-down per rank (pJ) (Joule)
system.node1.mem_ctrl.dram.rank0.prePowerDownEnergy            0                       # Energy for precharge power-down per rank (pJ) (Joule)
system.node1.mem_ctrl.dram.rank0.selfRefreshEnergy            0                       # Energy for self refresh per rank (pJ) (Joule)
system.node1.mem_ctrl.dram.rank0.totalEnergy   1185613950                       # Total energy per rank (pJ) (Joule)
system.node1.mem_ctrl.dram.rank0.averagePower   465.123029                       # Core power per rank (mW) (Watt)
system.node1.mem_ctrl.dram.rank0.totalIdleTime            0                       # Total Idle time Per DRAM Rank (Tick)
system.node1.mem_ctrl.dram.rank0.pwrStateTime::IDLE   2464013000                       # Time in different power states (Tick)
system.node1.mem_ctrl.dram.rank0.pwrStateTime::REF     85020000                       # Time in different power states (Tick)
system.node1.mem_ctrl.dram.rank0.pwrStateTime::SREF            0                       # Time in different power states (Tick)
system.node1.mem_ctrl.dram.rank0.pwrStateTime::PRE_PDN            0                       # Time in different power states (Tick)
system.node1.mem_ctrl.dram.rank0.pwrStateTime::ACT            0                       # Time in different power states (Tick)
system.node1.mem_ctrl.dram.rank0.pwrStateTime::ACT_PDN            0                       # Time in different power states (Tick)
system.node1.mem_ctrl.power_state.pwrStateResidencyTicks::UNDEFINED   2549033000                       # Cumulative time (in ticks) in various power states (Tick)
system.node1.xbar.transDist::ReadResp           11103                       # Transaction distribution (Count)
system.node1.xbar.transDist::ReadExReq           1384                       # Transaction distribution (Count)
system.node1.xbar.transDist::ReadExResp          1384                       # Transaction distribution (Count)
system.node1.xbar.transDist::ReadSharedReq        11103                       # Transaction distribution (Count)
system.node1.xbar.pktCount_system.node1.cpus0.l2cache.mem_side_port::system.bridge1.cpu_side_port         3122                       # Packet count per connected requestor and responder (Count)
system.node1.xbar.pktCount_system.node1.cpus0.l2cache.mem_side_port::total         3122                       # Packet count per connected requestor and responder (Count)
system.node1.xbar.pktCount_system.node1.cpus1.l2cache.mem_side_port::system.bridge1.cpu_side_port         3124                       # Packet count per connected requestor and responder (Count)
system.node1.xbar.pktCount_system.node1.cpus1.l2cache.mem_side_port::total         3124                       # Packet count per connected requestor and responder (Count)
system.node1.xbar.pktCount_system.node1.cpus2.l2cache.mem_side_port::system.bridge1.cpu_side_port         3124                       # Packet count per connected requestor and responder (Count)
system.node1.xbar.pktCount_system.node1.cpus2.l2cache.mem_side_port::total         3124                       # Packet count per connected requestor and responder (Count)
system.node1.xbar.pktCount_system.node1.cpus3.l2cache.mem_side_port::system.bridge1.cpu_side_port         3124                       # Packet count per connected requestor and responder (Count)
system.node1.xbar.pktCount_system.node1.cpus3.l2cache.mem_side_port::total         3124                       # Packet count per connected requestor and responder (Count)
system.node1.xbar.pktCount_system.node1.cpus4.l2cache.mem_side_port::system.bridge1.cpu_side_port         3122                       # Packet count per connected requestor and responder (Count)
system.node1.xbar.pktCount_system.node1.cpus4.l2cache.mem_side_port::total         3122                       # Packet count per connected requestor and responder (Count)
system.node1.xbar.pktCount_system.node1.cpus5.l2cache.mem_side_port::system.bridge1.cpu_side_port         3118                       # Packet count per connected requestor and responder (Count)
system.node1.xbar.pktCount_system.node1.cpus5.l2cache.mem_side_port::total         3118                       # Packet count per connected requestor and responder (Count)
system.node1.xbar.pktCount_system.node1.cpus6.l2cache.mem_side_port::system.bridge1.cpu_side_port         3118                       # Packet count per connected requestor and responder (Count)
system.node1.xbar.pktCount_system.node1.cpus6.l2cache.mem_side_port::total         3118                       # Packet count per connected requestor and responder (Count)
system.node1.xbar.pktCount_system.node1.cpus7.l2cache.mem_side_port::system.bridge1.cpu_side_port         3122                       # Packet count per connected requestor and responder (Count)
system.node1.xbar.pktCount_system.node1.cpus7.l2cache.mem_side_port::total         3122                       # Packet count per connected requestor and responder (Count)
system.node1.xbar.pktCount::total               24974                       # Packet count per connected requestor and responder (Count)
system.node1.xbar.pktSize_system.node1.cpus0.l2cache.mem_side_port::system.bridge1.cpu_side_port        99904                       # Cumulative packet size per connected requestor and responder (Byte)
system.node1.xbar.pktSize_system.node1.cpus0.l2cache.mem_side_port::total        99904                       # Cumulative packet size per connected requestor and responder (Byte)
system.node1.xbar.pktSize_system.node1.cpus1.l2cache.mem_side_port::system.bridge1.cpu_side_port        99968                       # Cumulative packet size per connected requestor and responder (Byte)
system.node1.xbar.pktSize_system.node1.cpus1.l2cache.mem_side_port::total        99968                       # Cumulative packet size per connected requestor and responder (Byte)
system.node1.xbar.pktSize_system.node1.cpus2.l2cache.mem_side_port::system.bridge1.cpu_side_port        99968                       # Cumulative packet size per connected requestor and responder (Byte)
system.node1.xbar.pktSize_system.node1.cpus2.l2cache.mem_side_port::total        99968                       # Cumulative packet size per connected requestor and responder (Byte)
system.node1.xbar.pktSize_system.node1.cpus3.l2cache.mem_side_port::system.bridge1.cpu_side_port        99968                       # Cumulative packet size per connected requestor and responder (Byte)
system.node1.xbar.pktSize_system.node1.cpus3.l2cache.mem_side_port::total        99968                       # Cumulative packet size per connected requestor and responder (Byte)
system.node1.xbar.pktSize_system.node1.cpus4.l2cache.mem_side_port::system.bridge1.cpu_side_port        99904                       # Cumulative packet size per connected requestor and responder (Byte)
system.node1.xbar.pktSize_system.node1.cpus4.l2cache.mem_side_port::total        99904                       # Cumulative packet size per connected requestor and responder (Byte)
system.node1.xbar.pktSize_system.node1.cpus5.l2cache.mem_side_port::system.bridge1.cpu_side_port        99776                       # Cumulative packet size per connected requestor and responder (Byte)
system.node1.xbar.pktSize_system.node1.cpus5.l2cache.mem_side_port::total        99776                       # Cumulative packet size per connected requestor and responder (Byte)
system.node1.xbar.pktSize_system.node1.cpus6.l2cache.mem_side_port::system.bridge1.cpu_side_port        99776                       # Cumulative packet size per connected requestor and responder (Byte)
system.node1.xbar.pktSize_system.node1.cpus6.l2cache.mem_side_port::total        99776                       # Cumulative packet size per connected requestor and responder (Byte)
system.node1.xbar.pktSize_system.node1.cpus7.l2cache.mem_side_port::system.bridge1.cpu_side_port        99904                       # Cumulative packet size per connected requestor and responder (Byte)
system.node1.xbar.pktSize_system.node1.cpus7.l2cache.mem_side_port::total        99904                       # Cumulative packet size per connected requestor and responder (Byte)
system.node1.xbar.pktSize::total               799168                       # Cumulative packet size per connected requestor and responder (Byte)
system.node1.xbar.snoops                            0                       # Total snoops (Count)
system.node1.xbar.snoopTraffic                      0                       # Total snoop traffic (Byte)
system.node1.xbar.snoopFanout::samples          17353                       # Request fanout histogram (Count)
system.node1.xbar.snoopFanout::mean                 0                       # Request fanout histogram (Count)
system.node1.xbar.snoopFanout::stdev                0                       # Request fanout histogram (Count)
system.node1.xbar.snoopFanout::underflows            0      0.00%      0.00% # Request fanout histogram (Count)
system.node1.xbar.snoopFanout::0                17353    100.00%    100.00% # Request fanout histogram (Count)
system.node1.xbar.snoopFanout::1                    0      0.00%    100.00% # Request fanout histogram (Count)
system.node1.xbar.snoopFanout::2                    0      0.00%    100.00% # Request fanout histogram (Count)
system.node1.xbar.snoopFanout::3                    0      0.00%    100.00% # Request fanout histogram (Count)
system.node1.xbar.snoopFanout::4                    0      0.00%    100.00% # Request fanout histogram (Count)
system.node1.xbar.snoopFanout::5                    0      0.00%    100.00% # Request fanout histogram (Count)
system.node1.xbar.snoopFanout::6                    0      0.00%    100.00% # Request fanout histogram (Count)
system.node1.xbar.snoopFanout::7                    0      0.00%    100.00% # Request fanout histogram (Count)
system.node1.xbar.snoopFanout::8                    0      0.00%    100.00% # Request fanout histogram (Count)
system.node1.xbar.snoopFanout::overflows            0      0.00%    100.00% # Request fanout histogram (Count)
system.node1.xbar.snoopFanout::min_value            0                       # Request fanout histogram (Count)
system.node1.xbar.snoopFanout::max_value            0                       # Request fanout histogram (Count)
system.node1.xbar.snoopFanout::total            17353                       # Request fanout histogram (Count)
system.node1.xbar.power_state.pwrStateResidencyTicks::UNDEFINED   2549033000                       # Cumulative time (in ticks) in various power states (Tick)
system.node1.xbar.reqLayer17.occupancy       19608500                       # Layer occupancy (ticks) (Tick)
system.node1.xbar.reqLayer17.utilization          0.0                       # Layer utilization (Ratio)
system.node1.xbar.respLayer1.occupancy        7805000                       # Layer occupancy (ticks) (Tick)
system.node1.xbar.respLayer1.utilization          0.0                       # Layer utilization (Ratio)
system.node1.xbar.respLayer13.occupancy       7810000                       # Layer occupancy (ticks) (Tick)
system.node1.xbar.respLayer13.utilization          0.0                       # Layer utilization (Ratio)
system.node1.xbar.respLayer17.occupancy       7805000                       # Layer occupancy (ticks) (Tick)
system.node1.xbar.respLayer17.utilization          0.0                       # Layer utilization (Ratio)
system.node1.xbar.respLayer21.occupancy       7795000                       # Layer occupancy (ticks) (Tick)
system.node1.xbar.respLayer21.utilization          0.0                       # Layer utilization (Ratio)
system.node1.xbar.respLayer25.occupancy       7795000                       # Layer occupancy (ticks) (Tick)
system.node1.xbar.respLayer25.utilization          0.0                       # Layer utilization (Ratio)
system.node1.xbar.respLayer29.occupancy       7805000                       # Layer occupancy (ticks) (Tick)
system.node1.xbar.respLayer29.utilization          0.0                       # Layer utilization (Ratio)
system.node1.xbar.respLayer5.occupancy        7810000                       # Layer occupancy (ticks) (Tick)
system.node1.xbar.respLayer5.utilization          0.0                       # Layer utilization (Ratio)
system.node1.xbar.respLayer9.occupancy        7810000                       # Layer occupancy (ticks) (Tick)
system.node1.xbar.respLayer9.utilization          0.0                       # Layer utilization (Ratio)
system.node1.xbar.snoop_filter.totRequests        17353                       # Total number of requests made to the snoop filter. (Count)
system.node1.xbar.snoop_filter.hitSingleRequests            0                       # Number of requests hitting in the snoop filter with a single holder of the requested data. (Count)
system.node1.xbar.snoop_filter.hitMultiRequests            0                       # Number of requests hitting in the snoop filter with multiple (>1) holders of the requested data. (Count)
system.node1.xbar.snoop_filter.totSnoops            0                       # Total number of snoops made to the snoop filter. (Count)
system.node1.xbar.snoop_filter.hitSingleSnoops            0                       # Number of snoops hitting in the snoop filter with a single holder of the requested data. (Count)
system.node1.xbar.snoop_filter.hitMultiSnoops            0                       # Number of snoops hitting in the snoop filter with multiple (>1) holders of the requested data. (Count)
system.workload.inst.arm                            0                       # number of arm instructions executed (Count)
system.workload.inst.quiesce                        0                       # number of quiesce instructions executed (Count)

---------- End Simulation Statistics   ----------
