
---------- Begin Simulation Statistics ----------
simSeconds                                   0.011837                       # Number of seconds simulated (Second)
simTicks                                  11837242000                       # Number of ticks simulated (Tick)
finalTick                                 11837242000                       # Number of ticks from beginning of simulation (restored from checkpoints and never reset) (Tick)
simFreq                                  1000000000000                       # The number of ticks per simulated second ((Tick/Second))
hostSeconds                                    134.35                       # Real time elapsed on the host (Second)
hostTickRate                                 88108368                       # The number of ticks simulated per host second (ticks/s) ((Tick/Second))
hostMemory                                    4326172                       # Number of bytes of host memory used (Byte)
simInsts                                     24919418                       # Number of instructions simulated (Count)
simOps                                       46347163                       # Number of ops (including micro ops) simulated (Count)
hostInstRate                                   185483                       # Simulator instruction rate (inst/s) ((Count/Second))
hostOpRate                                     344977                       # Simulator op (including micro ops) rate (op/s) ((Count/Second))
system.bridge0.power_state.pwrStateResidencyTicks::UNDEFINED  11837242000                       # Cumulative time (in ticks) in various power states (Tick)
system.bridge1.power_state.pwrStateResidencyTicks::UNDEFINED  11837242000                       # Cumulative time (in ticks) in various power states (Tick)
system.clk_domain.clock                          1000                       # Clock period in ticks (Tick)
system.clk_domain.voltage_domain.voltage            1                       # Voltage in Volts (Volt)
system.node0.cpus0.numCycles                 56731399                       # Number of cpu cycles simulated (Cycle)
system.node0.cpus0.cpi                       9.085561                       # CPI: cycles per instruction (core level) ((Cycle/Count))
system.node0.cpus0.ipc                       0.110065                       # IPC: instructions per cycle (core level) ((Count/Cycle))
system.node0.cpus0.numWorkItemsStarted              0                       # Number of work items this cpu started (Count)
system.node0.cpus0.numWorkItemsCompleted            0                       # Number of work items this cpu completed (Count)
system.node0.cpus0.instsAdded                12385297                       # Number of instructions added to the IQ (excludes non-spec) (Count)
system.node0.cpus0.nonSpecInstsAdded             4746                       # Number of non-speculative instructions added to the IQ (Count)
system.node0.cpus0.instsIssued               12150269                       # Number of instructions issued (Count)
system.node0.cpus0.squashedInstsIssued          18520                       # Number of squashed instructions issued (Count)
system.node0.cpus0.squashedInstsExamined       703620                       # Number of squashed instructions iterated over during squash; mainly for profiling (Count)
system.node0.cpus0.squashedOperandsExamined      1182097                       # Number of squashed operands that are examined and possibly removed from graph (Count)
system.node0.cpus0.squashedNonSpecRemoved         1187                       # Number of squashed non-spec instructions that were removed (Count)
system.node0.cpus0.numIssuedDist::samples     56128375                       # Number of insts issued each cycle (Count)
system.node0.cpus0.numIssuedDist::mean       0.216473                       # Number of insts issued each cycle (Count)
system.node0.cpus0.numIssuedDist::stdev      1.099138                       # Number of insts issued each cycle (Count)
system.node0.cpus0.numIssuedDist::underflows            0      0.00%      0.00% # Number of insts issued each cycle (Count)
system.node0.cpus0.numIssuedDist::0          53587089     95.47%     95.47% # Number of insts issued each cycle (Count)
system.node0.cpus0.numIssuedDist::1            249636      0.44%     95.92% # Number of insts issued each cycle (Count)
system.node0.cpus0.numIssuedDist::2            252888      0.45%     96.37% # Number of insts issued each cycle (Count)
system.node0.cpus0.numIssuedDist::3            270108      0.48%     96.85% # Number of insts issued each cycle (Count)
system.node0.cpus0.numIssuedDist::4            345935      0.62%     97.47% # Number of insts issued each cycle (Count)
system.node0.cpus0.numIssuedDist::5            342632      0.61%     98.08% # Number of insts issued each cycle (Count)
system.node0.cpus0.numIssuedDist::6            408309      0.73%     98.80% # Number of insts issued each cycle (Count)
system.node0.cpus0.numIssuedDist::7            336445      0.60%     99.40% # Number of insts issued each cycle (Count)
system.node0.cpus0.numIssuedDist::8            335333      0.60%    100.00% # Number of insts issued each cycle (Count)
system.node0.cpus0.numIssuedDist::overflows            0      0.00%    100.00% # Number of insts issued each cycle (Count)
system.node0.cpus0.numIssuedDist::min_value            0                       # Number of insts issued each cycle (Count)
system.node0.cpus0.numIssuedDist::max_value            8                       # Number of insts issued each cycle (Count)
system.node0.cpus0.numIssuedDist::total      56128375                       # Number of insts issued each cycle (Count)
system.node0.cpus0.statFuBusy::No_OpClass            0      0.00%      0.00% # attempts to use FU when none available (Count)
system.node0.cpus0.statFuBusy::IntAlu           86299     13.45%     13.45% # attempts to use FU when none available (Count)
system.node0.cpus0.statFuBusy::IntMult              0      0.00%     13.45% # attempts to use FU when none available (Count)
system.node0.cpus0.statFuBusy::IntDiv               0      0.00%     13.45% # attempts to use FU when none available (Count)
system.node0.cpus0.statFuBusy::FloatAdd             0      0.00%     13.45% # attempts to use FU when none available (Count)
system.node0.cpus0.statFuBusy::FloatCmp             0      0.00%     13.45% # attempts to use FU when none available (Count)
system.node0.cpus0.statFuBusy::FloatCvt             0      0.00%     13.45% # attempts to use FU when none available (Count)
system.node0.cpus0.statFuBusy::FloatMult            0      0.00%     13.45% # attempts to use FU when none available (Count)
system.node0.cpus0.statFuBusy::FloatMultAcc            0      0.00%     13.45% # attempts to use FU when none available (Count)
system.node0.cpus0.statFuBusy::FloatDiv             0      0.00%     13.45% # attempts to use FU when none available (Count)
system.node0.cpus0.statFuBusy::FloatMisc            0      0.00%     13.45% # attempts to use FU when none available (Count)
system.node0.cpus0.statFuBusy::FloatSqrt            0      0.00%     13.45% # attempts to use FU when none available (Count)
system.node0.cpus0.statFuBusy::SimdAdd              1      0.00%     13.45% # attempts to use FU when none available (Count)
system.node0.cpus0.statFuBusy::SimdAddAcc            0      0.00%     13.45% # attempts to use FU when none available (Count)
system.node0.cpus0.statFuBusy::SimdAlu           9046      1.41%     14.86% # attempts to use FU when none available (Count)
system.node0.cpus0.statFuBusy::SimdCmp              2      0.00%     14.86% # attempts to use FU when none available (Count)
system.node0.cpus0.statFuBusy::SimdCvt             15      0.00%     14.86% # attempts to use FU when none available (Count)
system.node0.cpus0.statFuBusy::SimdMisc           101      0.02%     14.88% # attempts to use FU when none available (Count)
system.node0.cpus0.statFuBusy::SimdMult             0      0.00%     14.88% # attempts to use FU when none available (Count)
system.node0.cpus0.statFuBusy::SimdMultAcc            0      0.00%     14.88% # attempts to use FU when none available (Count)
system.node0.cpus0.statFuBusy::SimdMatMultAcc            0      0.00%     14.88% # attempts to use FU when none available (Count)
system.node0.cpus0.statFuBusy::SimdShift            2      0.00%     14.88% # attempts to use FU when none available (Count)
system.node0.cpus0.statFuBusy::SimdShiftAcc            0      0.00%     14.88% # attempts to use FU when none available (Count)
system.node0.cpus0.statFuBusy::SimdDiv              0      0.00%     14.88% # attempts to use FU when none available (Count)
system.node0.cpus0.statFuBusy::SimdSqrt             0      0.00%     14.88% # attempts to use FU when none available (Count)
system.node0.cpus0.statFuBusy::SimdFloatAdd        77798     12.13%     27.01% # attempts to use FU when none available (Count)
system.node0.cpus0.statFuBusy::SimdFloatAlu            0      0.00%     27.01% # attempts to use FU when none available (Count)
system.node0.cpus0.statFuBusy::SimdFloatCmp         3498      0.55%     27.55% # attempts to use FU when none available (Count)
system.node0.cpus0.statFuBusy::SimdFloatCvt           62      0.01%     27.56% # attempts to use FU when none available (Count)
system.node0.cpus0.statFuBusy::SimdFloatDiv            0      0.00%     27.56% # attempts to use FU when none available (Count)
system.node0.cpus0.statFuBusy::SimdFloatMisc            0      0.00%     27.56% # attempts to use FU when none available (Count)
system.node0.cpus0.statFuBusy::SimdFloatMult        45397      7.08%     34.64% # attempts to use FU when none available (Count)
system.node0.cpus0.statFuBusy::SimdFloatMultAcc            0      0.00%     34.64% # attempts to use FU when none available (Count)
system.node0.cpus0.statFuBusy::SimdFloatMatMultAcc            0      0.00%     34.64% # attempts to use FU when none available (Count)
system.node0.cpus0.statFuBusy::SimdFloatSqrt            0      0.00%     34.64% # attempts to use FU when none available (Count)
system.node0.cpus0.statFuBusy::SimdReduceAdd            0      0.00%     34.64% # attempts to use FU when none available (Count)
system.node0.cpus0.statFuBusy::SimdReduceAlu            0      0.00%     34.64% # attempts to use FU when none available (Count)
system.node0.cpus0.statFuBusy::SimdReduceCmp            0      0.00%     34.64% # attempts to use FU when none available (Count)
system.node0.cpus0.statFuBusy::SimdFloatReduceAdd            0      0.00%     34.64% # attempts to use FU when none available (Count)
system.node0.cpus0.statFuBusy::SimdFloatReduceCmp            0      0.00%     34.64% # attempts to use FU when none available (Count)
system.node0.cpus0.statFuBusy::SimdAes              0      0.00%     34.64% # attempts to use FU when none available (Count)
system.node0.cpus0.statFuBusy::SimdAesMix            0      0.00%     34.64% # attempts to use FU when none available (Count)
system.node0.cpus0.statFuBusy::SimdSha1Hash            0      0.00%     34.64% # attempts to use FU when none available (Count)
system.node0.cpus0.statFuBusy::SimdSha1Hash2            0      0.00%     34.64% # attempts to use FU when none available (Count)
system.node0.cpus0.statFuBusy::SimdSha256Hash            0      0.00%     34.64% # attempts to use FU when none available (Count)
system.node0.cpus0.statFuBusy::SimdSha256Hash2            0      0.00%     34.64% # attempts to use FU when none available (Count)
system.node0.cpus0.statFuBusy::SimdShaSigma2            0      0.00%     34.64% # attempts to use FU when none available (Count)
system.node0.cpus0.statFuBusy::SimdShaSigma3            0      0.00%     34.64% # attempts to use FU when none available (Count)
system.node0.cpus0.statFuBusy::SimdSha3             0      0.00%     34.64% # attempts to use FU when none available (Count)
system.node0.cpus0.statFuBusy::SimdSm4e             0      0.00%     34.64% # attempts to use FU when none available (Count)
system.node0.cpus0.statFuBusy::SimdCrc              0      0.00%     34.64% # attempts to use FU when none available (Count)
system.node0.cpus0.statFuBusy::SimdPredAlu            0      0.00%     34.64% # attempts to use FU when none available (Count)
system.node0.cpus0.statFuBusy::SimdDotProd            0      0.00%     34.64% # attempts to use FU when none available (Count)
system.node0.cpus0.statFuBusy::Matrix               0      0.00%     34.64% # attempts to use FU when none available (Count)
system.node0.cpus0.statFuBusy::MatrixMov            0      0.00%     34.64% # attempts to use FU when none available (Count)
system.node0.cpus0.statFuBusy::MatrixOP             0      0.00%     34.64% # attempts to use FU when none available (Count)
system.node0.cpus0.statFuBusy::MemRead          16097      2.51%     37.15% # attempts to use FU when none available (Count)
system.node0.cpus0.statFuBusy::MemWrite          4028      0.63%     37.78% # attempts to use FU when none available (Count)
system.node0.cpus0.statFuBusy::FloatMemRead       397113     61.90%     99.67% # attempts to use FU when none available (Count)
system.node0.cpus0.statFuBusy::FloatMemWrite         2090      0.33%    100.00% # attempts to use FU when none available (Count)
system.node0.cpus0.statFuBusy::InstPrefetch            0      0.00%    100.00% # attempts to use FU when none available (Count)
system.node0.cpus0.statFuBusy::SimdUnitStrideLoad            0      0.00%    100.00% # attempts to use FU when none available (Count)
system.node0.cpus0.statFuBusy::SimdUnitStrideStore            0      0.00%    100.00% # attempts to use FU when none available (Count)
system.node0.cpus0.statFuBusy::SimdUnitStrideMaskLoad            0      0.00%    100.00% # attempts to use FU when none available (Count)
system.node0.cpus0.statFuBusy::SimdUnitStrideMaskStore            0      0.00%    100.00% # attempts to use FU when none available (Count)
system.node0.cpus0.statFuBusy::SimdStridedLoad            0      0.00%    100.00% # attempts to use FU when none available (Count)
system.node0.cpus0.statFuBusy::SimdStridedStore            0      0.00%    100.00% # attempts to use FU when none available (Count)
system.node0.cpus0.statFuBusy::SimdIndexedLoad            0      0.00%    100.00% # attempts to use FU when none available (Count)
system.node0.cpus0.statFuBusy::SimdIndexedStore            0      0.00%    100.00% # attempts to use FU when none available (Count)
system.node0.cpus0.statFuBusy::SimdWholeRegisterLoad            0      0.00%    100.00% # attempts to use FU when none available (Count)
system.node0.cpus0.statFuBusy::SimdWholeRegisterStore            0      0.00%    100.00% # attempts to use FU when none available (Count)
system.node0.cpus0.statFuBusy::SimdUnitStrideFaultOnlyFirstLoad            0      0.00%    100.00% # attempts to use FU when none available (Count)
system.node0.cpus0.statFuBusy::SimdUnitStrideSegmentedLoad            0      0.00%    100.00% # attempts to use FU when none available (Count)
system.node0.cpus0.statFuBusy::SimdUnitStrideSegmentedStore            0      0.00%    100.00% # attempts to use FU when none available (Count)
system.node0.cpus0.statFuBusy::SimdUnitStrideSegmentedFaultOnlyFirstLoad            0      0.00%    100.00% # attempts to use FU when none available (Count)
system.node0.cpus0.statFuBusy::SimdStrideSegmentedLoad            0      0.00%    100.00% # attempts to use FU when none available (Count)
system.node0.cpus0.statFuBusy::SimdStrideSegmentedStore            0      0.00%    100.00% # attempts to use FU when none available (Count)
system.node0.cpus0.statFuBusy::SimdExt              0      0.00%    100.00% # attempts to use FU when none available (Count)
system.node0.cpus0.statFuBusy::SimdFloatExt            0      0.00%    100.00% # attempts to use FU when none available (Count)
system.node0.cpus0.statFuBusy::SimdConfig            0      0.00%    100.00% # attempts to use FU when none available (Count)
system.node0.cpus0.statFuBusy::SimdBf16Add            0      0.00%    100.00% # attempts to use FU when none available (Count)
system.node0.cpus0.statFuBusy::SimdBf16Cmp            0      0.00%    100.00% # attempts to use FU when none available (Count)
system.node0.cpus0.statFuBusy::SimdBf16Cvt            0      0.00%    100.00% # attempts to use FU when none available (Count)
system.node0.cpus0.statFuBusy::SimdBf16DotProd            0      0.00%    100.00% # attempts to use FU when none available (Count)
system.node0.cpus0.statFuBusy::SimdBf16MatMultAcc            0      0.00%    100.00% # attempts to use FU when none available (Count)
system.node0.cpus0.statFuBusy::SimdBf16Mult            0      0.00%    100.00% # attempts to use FU when none available (Count)
system.node0.cpus0.statFuBusy::SimdBf16MultAcc            0      0.00%    100.00% # attempts to use FU when none available (Count)
system.node0.cpus0.statFuBusy::Bf16Cvt              0      0.00%    100.00% # attempts to use FU when none available (Count)
system.node0.cpus0.statFuBusy::System               0      0.00%    100.00% # attempts to use FU when none available (Count)
system.node0.cpus0.issuedInstType_0::No_OpClass        35938      0.30%      0.30% # Number of instructions issued per FU type, per thread (Count)
system.node0.cpus0.issuedInstType_0::IntAlu      4717323     38.82%     39.12% # Number of instructions issued per FU type, per thread (Count)
system.node0.cpus0.issuedInstType_0::IntMult        61710      0.51%     39.63% # Number of instructions issued per FU type, per thread (Count)
system.node0.cpus0.issuedInstType_0::IntDiv         4972      0.04%     39.67% # Number of instructions issued per FU type, per thread (Count)
system.node0.cpus0.issuedInstType_0::FloatAdd        80776      0.66%     40.33% # Number of instructions issued per FU type, per thread (Count)
system.node0.cpus0.issuedInstType_0::FloatCmp            0      0.00%     40.33% # Number of instructions issued per FU type, per thread (Count)
system.node0.cpus0.issuedInstType_0::FloatCvt            0      0.00%     40.33% # Number of instructions issued per FU type, per thread (Count)
system.node0.cpus0.issuedInstType_0::FloatMult            0      0.00%     40.33% # Number of instructions issued per FU type, per thread (Count)
system.node0.cpus0.issuedInstType_0::FloatMultAcc            0      0.00%     40.33% # Number of instructions issued per FU type, per thread (Count)
system.node0.cpus0.issuedInstType_0::FloatDiv            0      0.00%     40.33% # Number of instructions issued per FU type, per thread (Count)
system.node0.cpus0.issuedInstType_0::FloatMisc            0      0.00%     40.33% # Number of instructions issued per FU type, per thread (Count)
system.node0.cpus0.issuedInstType_0::FloatSqrt            0      0.00%     40.33% # Number of instructions issued per FU type, per thread (Count)
system.node0.cpus0.issuedInstType_0::SimdAdd          358      0.00%     40.34% # Number of instructions issued per FU type, per thread (Count)
system.node0.cpus0.issuedInstType_0::SimdAddAcc            0      0.00%     40.34% # Number of instructions issued per FU type, per thread (Count)
system.node0.cpus0.issuedInstType_0::SimdAlu        75713      0.62%     40.96% # Number of instructions issued per FU type, per thread (Count)
system.node0.cpus0.issuedInstType_0::SimdCmp           31      0.00%     40.96% # Number of instructions issued per FU type, per thread (Count)
system.node0.cpus0.issuedInstType_0::SimdCvt         1749      0.01%     40.97% # Number of instructions issued per FU type, per thread (Count)
system.node0.cpus0.issuedInstType_0::SimdMisc        44379      0.37%     41.34% # Number of instructions issued per FU type, per thread (Count)
system.node0.cpus0.issuedInstType_0::SimdMult            0      0.00%     41.34% # Number of instructions issued per FU type, per thread (Count)
system.node0.cpus0.issuedInstType_0::SimdMultAcc            0      0.00%     41.34% # Number of instructions issued per FU type, per thread (Count)
system.node0.cpus0.issuedInstType_0::SimdMatMultAcc            0      0.00%     41.34% # Number of instructions issued per FU type, per thread (Count)
system.node0.cpus0.issuedInstType_0::SimdShift         1063      0.01%     41.35% # Number of instructions issued per FU type, per thread (Count)
system.node0.cpus0.issuedInstType_0::SimdShiftAcc            0      0.00%     41.35% # Number of instructions issued per FU type, per thread (Count)
system.node0.cpus0.issuedInstType_0::SimdDiv            0      0.00%     41.35% # Number of instructions issued per FU type, per thread (Count)
system.node0.cpus0.issuedInstType_0::SimdSqrt            0      0.00%     41.35% # Number of instructions issued per FU type, per thread (Count)
system.node0.cpus0.issuedInstType_0::SimdFloatAdd      2206970     18.16%     59.51% # Number of instructions issued per FU type, per thread (Count)
system.node0.cpus0.issuedInstType_0::SimdFloatAlu            0      0.00%     59.51% # Number of instructions issued per FU type, per thread (Count)
system.node0.cpus0.issuedInstType_0::SimdFloatCmp        35454      0.29%     59.80% # Number of instructions issued per FU type, per thread (Count)
system.node0.cpus0.issuedInstType_0::SimdFloatCvt        55608      0.46%     60.26% # Number of instructions issued per FU type, per thread (Count)
system.node0.cpus0.issuedInstType_0::SimdFloatDiv           17      0.00%     60.26% # Number of instructions issued per FU type, per thread (Count)
system.node0.cpus0.issuedInstType_0::SimdFloatMisc            0      0.00%     60.26% # Number of instructions issued per FU type, per thread (Count)
system.node0.cpus0.issuedInstType_0::SimdFloatMult       583186      4.80%     65.06% # Number of instructions issued per FU type, per thread (Count)
system.node0.cpus0.issuedInstType_0::SimdFloatMultAcc            0      0.00%     65.06% # Number of instructions issued per FU type, per thread (Count)
system.node0.cpus0.issuedInstType_0::SimdFloatMatMultAcc            0      0.00%     65.06% # Number of instructions issued per FU type, per thread (Count)
system.node0.cpus0.issuedInstType_0::SimdFloatSqrt            4      0.00%     65.06% # Number of instructions issued per FU type, per thread (Count)
system.node0.cpus0.issuedInstType_0::SimdReduceAdd            0      0.00%     65.06% # Number of instructions issued per FU type, per thread (Count)
system.node0.cpus0.issuedInstType_0::SimdReduceAlu            0      0.00%     65.06% # Number of instructions issued per FU type, per thread (Count)
system.node0.cpus0.issuedInstType_0::SimdReduceCmp            0      0.00%     65.06% # Number of instructions issued per FU type, per thread (Count)
system.node0.cpus0.issuedInstType_0::SimdFloatReduceAdd            0      0.00%     65.06% # Number of instructions issued per FU type, per thread (Count)
system.node0.cpus0.issuedInstType_0::SimdFloatReduceCmp            0      0.00%     65.06% # Number of instructions issued per FU type, per thread (Count)
system.node0.cpus0.issuedInstType_0::SimdAes            0      0.00%     65.06% # Number of instructions issued per FU type, per thread (Count)
system.node0.cpus0.issuedInstType_0::SimdAesMix            0      0.00%     65.06% # Number of instructions issued per FU type, per thread (Count)
system.node0.cpus0.issuedInstType_0::SimdSha1Hash            0      0.00%     65.06% # Number of instructions issued per FU type, per thread (Count)
system.node0.cpus0.issuedInstType_0::SimdSha1Hash2            0      0.00%     65.06% # Number of instructions issued per FU type, per thread (Count)
system.node0.cpus0.issuedInstType_0::SimdSha256Hash            0      0.00%     65.06% # Number of instructions issued per FU type, per thread (Count)
system.node0.cpus0.issuedInstType_0::SimdSha256Hash2            0      0.00%     65.06% # Number of instructions issued per FU type, per thread (Count)
system.node0.cpus0.issuedInstType_0::SimdShaSigma2            0      0.00%     65.06% # Number of instructions issued per FU type, per thread (Count)
system.node0.cpus0.issuedInstType_0::SimdShaSigma3            0      0.00%     65.06% # Number of instructions issued per FU type, per thread (Count)
system.node0.cpus0.issuedInstType_0::SimdSha3            0      0.00%     65.06% # Number of instructions issued per FU type, per thread (Count)
system.node0.cpus0.issuedInstType_0::SimdSm4e            0      0.00%     65.06% # Number of instructions issued per FU type, per thread (Count)
system.node0.cpus0.issuedInstType_0::SimdCrc            0      0.00%     65.06% # Number of instructions issued per FU type, per thread (Count)
system.node0.cpus0.issuedInstType_0::SimdPredAlu            0      0.00%     65.06% # Number of instructions issued per FU type, per thread (Count)
system.node0.cpus0.issuedInstType_0::SimdDotProd            0      0.00%     65.06% # Number of instructions issued per FU type, per thread (Count)
system.node0.cpus0.issuedInstType_0::Matrix            0      0.00%     65.06% # Number of instructions issued per FU type, per thread (Count)
system.node0.cpus0.issuedInstType_0::MatrixMov            0      0.00%     65.06% # Number of instructions issued per FU type, per thread (Count)
system.node0.cpus0.issuedInstType_0::MatrixOP            0      0.00%     65.06% # Number of instructions issued per FU type, per thread (Count)
system.node0.cpus0.issuedInstType_0::MemRead       462471      3.81%     68.87% # Number of instructions issued per FU type, per thread (Count)
system.node0.cpus0.issuedInstType_0::MemWrite       222545      1.83%     70.70% # Number of instructions issued per FU type, per thread (Count)
system.node0.cpus0.issuedInstType_0::FloatMemRead      2815547     23.17%     93.87% # Number of instructions issued per FU type, per thread (Count)
system.node0.cpus0.issuedInstType_0::FloatMemWrite       744455      6.13%    100.00% # Number of instructions issued per FU type, per thread (Count)
system.node0.cpus0.issuedInstType_0::InstPrefetch            0      0.00%    100.00% # Number of instructions issued per FU type, per thread (Count)
system.node0.cpus0.issuedInstType_0::SimdUnitStrideLoad            0      0.00%    100.00% # Number of instructions issued per FU type, per thread (Count)
system.node0.cpus0.issuedInstType_0::SimdUnitStrideStore            0      0.00%    100.00% # Number of instructions issued per FU type, per thread (Count)
system.node0.cpus0.issuedInstType_0::SimdUnitStrideMaskLoad            0      0.00%    100.00% # Number of instructions issued per FU type, per thread (Count)
system.node0.cpus0.issuedInstType_0::SimdUnitStrideMaskStore            0      0.00%    100.00% # Number of instructions issued per FU type, per thread (Count)
system.node0.cpus0.issuedInstType_0::SimdStridedLoad            0      0.00%    100.00% # Number of instructions issued per FU type, per thread (Count)
system.node0.cpus0.issuedInstType_0::SimdStridedStore            0      0.00%    100.00% # Number of instructions issued per FU type, per thread (Count)
system.node0.cpus0.issuedInstType_0::SimdIndexedLoad            0      0.00%    100.00% # Number of instructions issued per FU type, per thread (Count)
system.node0.cpus0.issuedInstType_0::SimdIndexedStore            0      0.00%    100.00% # Number of instructions issued per FU type, per thread (Count)
system.node0.cpus0.issuedInstType_0::SimdWholeRegisterLoad            0      0.00%    100.00% # Number of instructions issued per FU type, per thread (Count)
system.node0.cpus0.issuedInstType_0::SimdWholeRegisterStore            0      0.00%    100.00% # Number of instructions issued per FU type, per thread (Count)
system.node0.cpus0.issuedInstType_0::SimdUnitStrideFaultOnlyFirstLoad            0      0.00%    100.00% # Number of instructions issued per FU type, per thread (Count)
system.node0.cpus0.issuedInstType_0::SimdUnitStrideSegmentedLoad            0      0.00%    100.00% # Number of instructions issued per FU type, per thread (Count)
system.node0.cpus0.issuedInstType_0::SimdUnitStrideSegmentedStore            0      0.00%    100.00% # Number of instructions issued per FU type, per thread (Count)
system.node0.cpus0.issuedInstType_0::SimdUnitStrideSegmentedFaultOnlyFirstLoad            0      0.00%    100.00% # Number of instructions issued per FU type, per thread (Count)
system.node0.cpus0.issuedInstType_0::SimdStrideSegmentedLoad            0      0.00%    100.00% # Number of instructions issued per FU type, per thread (Count)
system.node0.cpus0.issuedInstType_0::SimdStrideSegmentedStore            0      0.00%    100.00% # Number of instructions issued per FU type, per thread (Count)
system.node0.cpus0.issuedInstType_0::SimdExt            0      0.00%    100.00% # Number of instructions issued per FU type, per thread (Count)
system.node0.cpus0.issuedInstType_0::SimdFloatExt            0      0.00%    100.00% # Number of instructions issued per FU type, per thread (Count)
system.node0.cpus0.issuedInstType_0::SimdConfig            0      0.00%    100.00% # Number of instructions issued per FU type, per thread (Count)
system.node0.cpus0.issuedInstType_0::SimdBf16Add            0      0.00%    100.00% # Number of instructions issued per FU type, per thread (Count)
system.node0.cpus0.issuedInstType_0::SimdBf16Cmp            0      0.00%    100.00% # Number of instructions issued per FU type, per thread (Count)
system.node0.cpus0.issuedInstType_0::SimdBf16Cvt            0      0.00%    100.00% # Number of instructions issued per FU type, per thread (Count)
system.node0.cpus0.issuedInstType_0::SimdBf16DotProd            0      0.00%    100.00% # Number of instructions issued per FU type, per thread (Count)
system.node0.cpus0.issuedInstType_0::SimdBf16MatMultAcc            0      0.00%    100.00% # Number of instructions issued per FU type, per thread (Count)
system.node0.cpus0.issuedInstType_0::SimdBf16Mult            0      0.00%    100.00% # Number of instructions issued per FU type, per thread (Count)
system.node0.cpus0.issuedInstType_0::SimdBf16MultAcc            0      0.00%    100.00% # Number of instructions issued per FU type, per thread (Count)
system.node0.cpus0.issuedInstType_0::Bf16Cvt            0      0.00%    100.00% # Number of instructions issued per FU type, per thread (Count)
system.node0.cpus0.issuedInstType_0::System            0      0.00%    100.00% # Number of instructions issued per FU type, per thread (Count)
system.node0.cpus0.issuedInstType_0::total     12150269                       # Number of instructions issued per FU type, per thread (Count)
system.node0.cpus0.issueRate                 0.214172                       # Inst issue rate ((Count/Cycle))
system.node0.cpus0.fuBusy                      641549                       # FU busy when requested (Count)
system.node0.cpus0.fuBusyRate                0.052801                       # FU busy rate (busy events/executed inst) ((Count/Count))
system.node0.cpus0.intInstQueueReads         66344244                       # Number of integer instruction queue reads (Count)
system.node0.cpus0.intInstQueueWrites         5561603                       # Number of integer instruction queue writes (Count)
system.node0.cpus0.intInstQueueWakeupAccesses      4990989                       # Number of integer instruction queue wakeup accesses (Count)
system.node0.cpus0.fpInstQueueReads          14744731                       # Number of floating instruction queue reads (Count)
system.node0.cpus0.fpInstQueueWrites          7532774                       # Number of floating instruction queue writes (Count)
system.node0.cpus0.fpInstQueueWakeupAccesses      7008297                       # Number of floating instruction queue wakeup accesses (Count)
system.node0.cpus0.vecInstQueueReads                0                       # Number of vector instruction queue reads (Count)
system.node0.cpus0.vecInstQueueWrites               0                       # Number of vector instruction queue writes (Count)
system.node0.cpus0.vecInstQueueWakeupAccesses            0                       # Number of vector instruction queue wakeup accesses (Count)
system.node0.cpus0.intAluAccesses             5121195                       # Number of integer alu accesses (Count)
system.node0.cpus0.fpAluAccesses              7634685                       # Number of floating point alu accesses (Count)
system.node0.cpus0.vecAluAccesses                   0                       # Number of vector alu accesses (Count)
system.node0.cpus0.numRecvResp                4131288                       # Number of received responses (Count)
system.node0.cpus0.numRecvRespBytes          32170781                       # Number of received response bytes (Byte)
system.node0.cpus0.recvRespAvgBW                 0.57                       # Average bandwidth of received responses ((Byte/Cycle))
system.node0.cpus0.recvRespAvgSize               7.79                       # Average packet size per received response ((Byte/Count))
system.node0.cpus0.recvRespAvgRate               0.07                       # Average rate of received responses per cycle ((Count/Cycle))
system.node0.cpus0.recvRespAvgRetryRate          0.00                       # Average retry rate per received response ((Count/Count))
system.node0.cpus0.numSendRetryResp                 0                       # Number of retry responses sent (Count)
system.node0.cpus0.numSquashedInsts             87052                       # Number of squashed instructions skipped in execute (Count)
system.node0.cpus0.numSwp                           0                       # Number of swp insts executed (Count)
system.node0.cpus0.timesIdled                    2193                       # Number of times that the entire CPU went into an idle state and unscheduled itself (Count)
system.node0.cpus0.idleCycles                  603024                       # Total number of cycles that the CPU has spent unscheduled due to idling (Cycle)
system.node0.cpus0.quiesceCycles              2454812                       # Total number of cycles that CPU has spent quiesced or waiting for an interrupt (Cycle)
system.node0.cpus0.MemDepUnit__0.insertedLoads      3298906                       # Number of loads inserted to the mem dependence unit. (Count)
system.node0.cpus0.MemDepUnit__0.insertedStores       995623                       # Number of stores inserted to the mem dependence unit. (Count)
system.node0.cpus0.MemDepUnit__0.conflictingLoads       213945                       # Number of conflicting loads. (Count)
system.node0.cpus0.MemDepUnit__0.conflictingStores       177275                       # Number of conflicting stores. (Count)
system.node0.cpus0.MemDepUnit__1.insertedLoads            0                       # Number of loads inserted to the mem dependence unit. (Count)
system.node0.cpus0.MemDepUnit__1.insertedStores            0                       # Number of stores inserted to the mem dependence unit. (Count)
system.node0.cpus0.MemDepUnit__1.conflictingLoads            0                       # Number of conflicting loads. (Count)
system.node0.cpus0.MemDepUnit__1.conflictingStores            0                       # Number of conflicting stores. (Count)
system.node0.cpus0.MemDepUnit__2.insertedLoads            0                       # Number of loads inserted to the mem dependence unit. (Count)
system.node0.cpus0.MemDepUnit__2.insertedStores            0                       # Number of stores inserted to the mem dependence unit. (Count)
system.node0.cpus0.MemDepUnit__2.conflictingLoads            0                       # Number of conflicting loads. (Count)
system.node0.cpus0.MemDepUnit__2.conflictingStores            0                       # Number of conflicting stores. (Count)
system.node0.cpus0.MemDepUnit__3.insertedLoads            0                       # Number of loads inserted to the mem dependence unit. (Count)
system.node0.cpus0.MemDepUnit__3.insertedStores            0                       # Number of stores inserted to the mem dependence unit. (Count)
system.node0.cpus0.MemDepUnit__3.conflictingLoads            0                       # Number of conflicting loads. (Count)
system.node0.cpus0.MemDepUnit__3.conflictingStores            0                       # Number of conflicting stores. (Count)
system.node0.cpus0.bac.fetchTargets                 0                       # Number of fetch targets created  (Count)
system.node0.cpus0.bac.branches                660421                       # Number of branches that BAC encountered (Count)
system.node0.cpus0.bac.predTakenBranches       432710                       # Number of branches that BAC predicted taken. (Count)
system.node0.cpus0.bac.branchesNotLastuOp            0                       # Number of branches that fetch encountered which are not the last uOp within a macrooperation. Jump to itself. (Count)
system.node0.cpus0.bac.branchMisspredict        21551                       # Number of mispredicted branches (Count)
system.node0.cpus0.bac.noBranchMisspredict         1477                       # Number of non-branch instructions mispredicted (Count)
system.node0.cpus0.bac.squashBranchDecode         2009                       # Number of branches squashed from decode (Count)
system.node0.cpus0.bac.squashBranchCommit        19542                       # Number of branches squashed from commit (Count)
system.node0.cpus0.bac.preDecUpdate::NoBranch            0                       # Number of branches extracted from the predecoder (Count)
system.node0.cpus0.bac.preDecUpdate::Return            0                       # Number of branches extracted from the predecoder (Count)
system.node0.cpus0.bac.preDecUpdate::CallDirect            0                       # Number of branches extracted from the predecoder (Count)
system.node0.cpus0.bac.preDecUpdate::CallIndirect            0                       # Number of branches extracted from the predecoder (Count)
system.node0.cpus0.bac.preDecUpdate::DirectCond            0                       # Number of branches extracted from the predecoder (Count)
system.node0.cpus0.bac.preDecUpdate::DirectUncond            0                       # Number of branches extracted from the predecoder (Count)
system.node0.cpus0.bac.preDecUpdate::IndirectCond            0                       # Number of branches extracted from the predecoder (Count)
system.node0.cpus0.bac.preDecUpdate::IndirectUncond            0                       # Number of branches extracted from the predecoder (Count)
system.node0.cpus0.bac.preDecUpdate::total            0                       # Number of branches extracted from the predecoder (Count)
system.node0.cpus0.bac.noHistByType::NoBranch            0                       # Number and type of branches that were undetected by the BPU. (Count)
system.node0.cpus0.bac.noHistByType::Return            0                       # Number and type of branches that were undetected by the BPU. (Count)
system.node0.cpus0.bac.noHistByType::CallDirect            0                       # Number and type of branches that were undetected by the BPU. (Count)
system.node0.cpus0.bac.noHistByType::CallIndirect            0                       # Number and type of branches that were undetected by the BPU. (Count)
system.node0.cpus0.bac.noHistByType::DirectCond            0                       # Number and type of branches that were undetected by the BPU. (Count)
system.node0.cpus0.bac.noHistByType::DirectUncond            0                       # Number and type of branches that were undetected by the BPU. (Count)
system.node0.cpus0.bac.noHistByType::IndirectCond            0                       # Number and type of branches that were undetected by the BPU. (Count)
system.node0.cpus0.bac.noHistByType::IndirectUncond            0                       # Number and type of branches that were undetected by the BPU. (Count)
system.node0.cpus0.bac.noHistByType::total            0                       # Number and type of branches that were undetected by the BPU. (Count)
system.node0.cpus0.bac.typeMissmatch                0                       # Number branches where the branch type miss match (Count)
system.node0.cpus0.bac.multiBranchInst              0                       # Number branches because its not the last branch. (Count)
system.node0.cpus0.bac.ftSizeDist::samples            0                       # Number of bytes per fetch target (Count)
system.node0.cpus0.bac.ftSizeDist::mean           nan                       # Number of bytes per fetch target (Count)
system.node0.cpus0.bac.ftSizeDist::stdev          nan                       # Number of bytes per fetch target (Count)
system.node0.cpus0.bac.ftSizeDist::underflows            0                       # Number of bytes per fetch target (Count)
system.node0.cpus0.bac.ftSizeDist::0-3              0                       # Number of bytes per fetch target (Count)
system.node0.cpus0.bac.ftSizeDist::4-7              0                       # Number of bytes per fetch target (Count)
system.node0.cpus0.bac.ftSizeDist::8-11             0                       # Number of bytes per fetch target (Count)
system.node0.cpus0.bac.ftSizeDist::12-15            0                       # Number of bytes per fetch target (Count)
system.node0.cpus0.bac.ftSizeDist::16-19            0                       # Number of bytes per fetch target (Count)
system.node0.cpus0.bac.ftSizeDist::20-23            0                       # Number of bytes per fetch target (Count)
system.node0.cpus0.bac.ftSizeDist::24-27            0                       # Number of bytes per fetch target (Count)
system.node0.cpus0.bac.ftSizeDist::28-31            0                       # Number of bytes per fetch target (Count)
system.node0.cpus0.bac.ftSizeDist::32               0                       # Number of bytes per fetch target (Count)
system.node0.cpus0.bac.ftSizeDist::overflows            0                       # Number of bytes per fetch target (Count)
system.node0.cpus0.bac.ftSizeDist::min_value            0                       # Number of bytes per fetch target (Count)
system.node0.cpus0.bac.ftSizeDist::max_value            0                       # Number of bytes per fetch target (Count)
system.node0.cpus0.bac.ftSizeDist::total            0                       # Number of bytes per fetch target (Count)
system.node0.cpus0.bac.ftNumber::samples            0                       # Number of fetch target inserted to the FTQ per cycle (Count)
system.node0.cpus0.bac.ftNumber::mean             nan                       # Number of fetch target inserted to the FTQ per cycle (Count)
system.node0.cpus0.bac.ftNumber::stdev            nan                       # Number of fetch target inserted to the FTQ per cycle (Count)
system.node0.cpus0.bac.ftNumber::underflows            0                       # Number of fetch target inserted to the FTQ per cycle (Count)
system.node0.cpus0.bac.ftNumber::0                  0                       # Number of fetch target inserted to the FTQ per cycle (Count)
system.node0.cpus0.bac.ftNumber::1                  0                       # Number of fetch target inserted to the FTQ per cycle (Count)
system.node0.cpus0.bac.ftNumber::2                  0                       # Number of fetch target inserted to the FTQ per cycle (Count)
system.node0.cpus0.bac.ftNumber::3                  0                       # Number of fetch target inserted to the FTQ per cycle (Count)
system.node0.cpus0.bac.ftNumber::4                  0                       # Number of fetch target inserted to the FTQ per cycle (Count)
system.node0.cpus0.bac.ftNumber::overflows            0                       # Number of fetch target inserted to the FTQ per cycle (Count)
system.node0.cpus0.bac.ftNumber::min_value            0                       # Number of fetch target inserted to the FTQ per cycle (Count)
system.node0.cpus0.bac.ftNumber::max_value            0                       # Number of fetch target inserted to the FTQ per cycle (Count)
system.node0.cpus0.bac.ftNumber::total              0                       # Number of fetch target inserted to the FTQ per cycle (Count)
system.node0.cpus0.branchPred.lookups_0::NoBranch          437      0.07%      0.07% # Number of BP lookups (Count)
system.node0.cpus0.branchPred.lookups_0::Return        25950      3.93%      4.00% # Number of BP lookups (Count)
system.node0.cpus0.branchPred.lookups_0::CallDirect        25248      3.82%      7.82% # Number of BP lookups (Count)
system.node0.cpus0.branchPred.lookups_0::CallIndirect          931      0.14%      7.96% # Number of BP lookups (Count)
system.node0.cpus0.branchPred.lookups_0::DirectCond       564675     85.50%     93.46% # Number of BP lookups (Count)
system.node0.cpus0.branchPred.lookups_0::DirectUncond        28876      4.37%     97.83% # Number of BP lookups (Count)
system.node0.cpus0.branchPred.lookups_0::IndirectCond            0      0.00%     97.83% # Number of BP lookups (Count)
system.node0.cpus0.branchPred.lookups_0::IndirectUncond        14304      2.17%    100.00% # Number of BP lookups (Count)
system.node0.cpus0.branchPred.lookups_0::total       660421                       # Number of BP lookups (Count)
system.node0.cpus0.branchPred.squashes_0::NoBranch          421      0.45%      0.45% # Number of branches that got squashed (completely removed) as an earlier branch was mispredicted. (Count)
system.node0.cpus0.branchPred.squashes_0::Return         6753      7.14%      7.59% # Number of branches that got squashed (completely removed) as an earlier branch was mispredicted. (Count)
system.node0.cpus0.branchPred.squashes_0::CallDirect         6396      6.76%     14.35% # Number of branches that got squashed (completely removed) as an earlier branch was mispredicted. (Count)
system.node0.cpus0.branchPred.squashes_0::CallIndirect          581      0.61%     14.97% # Number of branches that got squashed (completely removed) as an earlier branch was mispredicted. (Count)
system.node0.cpus0.branchPred.squashes_0::DirectCond        69806     73.83%     88.80% # Number of branches that got squashed (completely removed) as an earlier branch was mispredicted. (Count)
system.node0.cpus0.branchPred.squashes_0::DirectUncond         4875      5.16%     93.96% # Number of branches that got squashed (completely removed) as an earlier branch was mispredicted. (Count)
system.node0.cpus0.branchPred.squashes_0::IndirectCond            0      0.00%     93.96% # Number of branches that got squashed (completely removed) as an earlier branch was mispredicted. (Count)
system.node0.cpus0.branchPred.squashes_0::IndirectUncond         5714      6.04%    100.00% # Number of branches that got squashed (completely removed) as an earlier branch was mispredicted. (Count)
system.node0.cpus0.branchPred.squashes_0::total        94546                       # Number of branches that got squashed (completely removed) as an earlier branch was mispredicted. (Count)
system.node0.cpus0.branchPred.corrected_0::NoBranch           60      0.28%      0.28% # Number of branches that got corrected but not yet commited. Branches get corrected by decode or after execute. Also a branch misprediction can be detected out-of-order. Therefore, a corrected branch might not end up beeing committed in case an even earlier branch was mispredicted (Count)
system.node0.cpus0.branchPred.corrected_0::Return            7      0.03%      0.31% # Number of branches that got corrected but not yet commited. Branches get corrected by decode or after execute. Also a branch misprediction can be detected out-of-order. Therefore, a corrected branch might not end up beeing committed in case an even earlier branch was mispredicted (Count)
system.node0.cpus0.branchPred.corrected_0::CallDirect         1226      5.69%      6.00% # Number of branches that got corrected but not yet commited. Branches get corrected by decode or after execute. Also a branch misprediction can be detected out-of-order. Therefore, a corrected branch might not end up beeing committed in case an even earlier branch was mispredicted (Count)
system.node0.cpus0.branchPred.corrected_0::CallIndirect          174      0.81%      6.81% # Number of branches that got corrected but not yet commited. Branches get corrected by decode or after execute. Also a branch misprediction can be detected out-of-order. Therefore, a corrected branch might not end up beeing committed in case an even earlier branch was mispredicted (Count)
system.node0.cpus0.branchPred.corrected_0::DirectCond        18706     86.80%     93.61% # Number of branches that got corrected but not yet commited. Branches get corrected by decode or after execute. Also a branch misprediction can be detected out-of-order. Therefore, a corrected branch might not end up beeing committed in case an even earlier branch was mispredicted (Count)
system.node0.cpus0.branchPred.corrected_0::DirectUncond          745      3.46%     97.06% # Number of branches that got corrected but not yet commited. Branches get corrected by decode or after execute. Also a branch misprediction can be detected out-of-order. Therefore, a corrected branch might not end up beeing committed in case an even earlier branch was mispredicted (Count)
system.node0.cpus0.branchPred.corrected_0::IndirectCond            0      0.00%     97.06% # Number of branches that got corrected but not yet commited. Branches get corrected by decode or after execute. Also a branch misprediction can be detected out-of-order. Therefore, a corrected branch might not end up beeing committed in case an even earlier branch was mispredicted (Count)
system.node0.cpus0.branchPred.corrected_0::IndirectUncond          633      2.94%    100.00% # Number of branches that got corrected but not yet commited. Branches get corrected by decode or after execute. Also a branch misprediction can be detected out-of-order. Therefore, a corrected branch might not end up beeing committed in case an even earlier branch was mispredicted (Count)
system.node0.cpus0.branchPred.corrected_0::total        21551                       # Number of branches that got corrected but not yet commited. Branches get corrected by decode or after execute. Also a branch misprediction can be detected out-of-order. Therefore, a corrected branch might not end up beeing committed in case an even earlier branch was mispredicted (Count)
system.node0.cpus0.branchPred.earlyResteers_0::NoBranch            0      0.00%      0.00% # Number of branches that got redirected after decode. (Count)
system.node0.cpus0.branchPred.earlyResteers_0::Return            0      0.00%      0.00% # Number of branches that got redirected after decode. (Count)
system.node0.cpus0.branchPred.earlyResteers_0::CallDirect         1226     61.03%     61.03% # Number of branches that got redirected after decode. (Count)
system.node0.cpus0.branchPred.earlyResteers_0::CallIndirect            0      0.00%     61.03% # Number of branches that got redirected after decode. (Count)
system.node0.cpus0.branchPred.earlyResteers_0::DirectCond           38      1.89%     62.92% # Number of branches that got redirected after decode. (Count)
system.node0.cpus0.branchPred.earlyResteers_0::DirectUncond          745     37.08%    100.00% # Number of branches that got redirected after decode. (Count)
system.node0.cpus0.branchPred.earlyResteers_0::IndirectCond            0      0.00%    100.00% # Number of branches that got redirected after decode. (Count)
system.node0.cpus0.branchPred.earlyResteers_0::IndirectUncond            0      0.00%    100.00% # Number of branches that got redirected after decode. (Count)
system.node0.cpus0.branchPred.earlyResteers_0::total         2009                       # Number of branches that got redirected after decode. (Count)
system.node0.cpus0.branchPred.committed_0::NoBranch           16      0.00%      0.00% # Number of branches finally committed  (Count)
system.node0.cpus0.branchPred.committed_0::Return        19197      3.39%      3.40% # Number of branches finally committed  (Count)
system.node0.cpus0.branchPred.committed_0::CallDirect        18852      3.33%      6.73% # Number of branches finally committed  (Count)
system.node0.cpus0.branchPred.committed_0::CallIndirect          350      0.06%      6.79% # Number of branches finally committed  (Count)
system.node0.cpus0.branchPred.committed_0::DirectCond       494859     87.45%     94.24% # Number of branches finally committed  (Count)
system.node0.cpus0.branchPred.committed_0::DirectUncond        24001      4.24%     98.48% # Number of branches finally committed  (Count)
system.node0.cpus0.branchPred.committed_0::IndirectCond            0      0.00%     98.48% # Number of branches finally committed  (Count)
system.node0.cpus0.branchPred.committed_0::IndirectUncond         8590      1.52%    100.00% # Number of branches finally committed  (Count)
system.node0.cpus0.branchPred.committed_0::total       565865                       # Number of branches finally committed  (Count)
system.node0.cpus0.branchPred.mispredicted_0::NoBranch           16      0.08%      0.08% # Number of committed branches that were mispredicted. (Count)
system.node0.cpus0.branchPred.mispredicted_0::Return            0      0.00%      0.08% # Number of committed branches that were mispredicted. (Count)
system.node0.cpus0.branchPred.mispredicted_0::CallDirect          716      3.65%      3.74% # Number of committed branches that were mispredicted. (Count)
system.node0.cpus0.branchPred.mispredicted_0::CallIndirect           95      0.48%      4.22% # Number of committed branches that were mispredicted. (Count)
system.node0.cpus0.branchPred.mispredicted_0::DirectCond        17782     90.77%     94.99% # Number of committed branches that were mispredicted. (Count)
system.node0.cpus0.branchPred.mispredicted_0::DirectUncond          436      2.23%     97.21% # Number of committed branches that were mispredicted. (Count)
system.node0.cpus0.branchPred.mispredicted_0::IndirectCond            0      0.00%     97.21% # Number of committed branches that were mispredicted. (Count)
system.node0.cpus0.branchPred.mispredicted_0::IndirectUncond          546      2.79%    100.00% # Number of committed branches that were mispredicted. (Count)
system.node0.cpus0.branchPred.mispredicted_0::total        19591                       # Number of committed branches that were mispredicted. (Count)
system.node0.cpus0.branchPred.mispredictDueToPredictor_0::NoBranch           16      0.10%      0.10% # Number of committed branches that were mispredicted by the predictor. (Count)
system.node0.cpus0.branchPred.mispredictDueToPredictor_0::Return            0      0.00%      0.10% # Number of committed branches that were mispredicted by the predictor. (Count)
system.node0.cpus0.branchPred.mispredictDueToPredictor_0::CallDirect            0      0.00%      0.10% # Number of committed branches that were mispredicted by the predictor. (Count)
system.node0.cpus0.branchPred.mispredictDueToPredictor_0::CallIndirect            0      0.00%      0.10% # Number of committed branches that were mispredicted by the predictor. (Count)
system.node0.cpus0.branchPred.mispredictDueToPredictor_0::DirectCond        16164     99.90%    100.00% # Number of committed branches that were mispredicted by the predictor. (Count)
system.node0.cpus0.branchPred.mispredictDueToPredictor_0::DirectUncond            0      0.00%    100.00% # Number of committed branches that were mispredicted by the predictor. (Count)
system.node0.cpus0.branchPred.mispredictDueToPredictor_0::IndirectCond            0      0.00%    100.00% # Number of committed branches that were mispredicted by the predictor. (Count)
system.node0.cpus0.branchPred.mispredictDueToPredictor_0::IndirectUncond            0      0.00%    100.00% # Number of committed branches that were mispredicted by the predictor. (Count)
system.node0.cpus0.branchPred.mispredictDueToPredictor_0::total        16180                       # Number of committed branches that were mispredicted by the predictor. (Count)
system.node0.cpus0.branchPred.mispredictDueToBTBMiss_0::NoBranch            0      0.00%      0.00% # Number of committed branches that were mispredicted because of a BTB miss. (Count)
system.node0.cpus0.branchPred.mispredictDueToBTBMiss_0::Return            0      0.00%      0.00% # Number of committed branches that were mispredicted because of a BTB miss. (Count)
system.node0.cpus0.branchPred.mispredictDueToBTBMiss_0::CallDirect          716     20.99%     20.99% # Number of committed branches that were mispredicted because of a BTB miss. (Count)
system.node0.cpus0.branchPred.mispredictDueToBTBMiss_0::CallIndirect           95      2.79%     23.78% # Number of committed branches that were mispredicted because of a BTB miss. (Count)
system.node0.cpus0.branchPred.mispredictDueToBTBMiss_0::DirectCond         1618     47.43%     71.21% # Number of committed branches that were mispredicted because of a BTB miss. (Count)
system.node0.cpus0.branchPred.mispredictDueToBTBMiss_0::DirectUncond          436     12.78%     83.99% # Number of committed branches that were mispredicted because of a BTB miss. (Count)
system.node0.cpus0.branchPred.mispredictDueToBTBMiss_0::IndirectCond            0      0.00%     83.99% # Number of committed branches that were mispredicted because of a BTB miss. (Count)
system.node0.cpus0.branchPred.mispredictDueToBTBMiss_0::IndirectUncond          546     16.01%    100.00% # Number of committed branches that were mispredicted because of a BTB miss. (Count)
system.node0.cpus0.branchPred.mispredictDueToBTBMiss_0::total         3411                       # Number of committed branches that were mispredicted because of a BTB miss. (Count)
system.node0.cpus0.branchPred.targetProvider_0::NoTarget       227711     34.48%     34.48% # The component providing the target for taken branches (Count)
system.node0.cpus0.branchPred.targetProvider_0::BTB       397446     60.18%     94.66% # The component providing the target for taken branches (Count)
system.node0.cpus0.branchPred.targetProvider_0::RAS        25950      3.93%     98.59% # The component providing the target for taken branches (Count)
system.node0.cpus0.branchPred.targetProvider_0::Indirect         9314      1.41%    100.00% # The component providing the target for taken branches (Count)
system.node0.cpus0.branchPred.targetProvider_0::total       660421                       # The component providing the target for taken branches (Count)
system.node0.cpus0.branchPred.targetWrong_0::NoBranch         8427     39.65%     39.65% # Number of branches where the target was incorrect or not available at prediction time. (Count)
system.node0.cpus0.branchPred.targetWrong_0::Return        12668     59.60%     99.25% # Number of branches where the target was incorrect or not available at prediction time. (Count)
system.node0.cpus0.branchPred.targetWrong_0::CallDirect            7      0.03%     99.28% # Number of branches where the target was incorrect or not available at prediction time. (Count)
system.node0.cpus0.branchPred.targetWrong_0::CallIndirect          153      0.72%    100.00% # Number of branches where the target was incorrect or not available at prediction time. (Count)
system.node0.cpus0.branchPred.targetWrong_0::DirectCond            0      0.00%    100.00% # Number of branches where the target was incorrect or not available at prediction time. (Count)
system.node0.cpus0.branchPred.targetWrong_0::DirectUncond            0      0.00%    100.00% # Number of branches where the target was incorrect or not available at prediction time. (Count)
system.node0.cpus0.branchPred.targetWrong_0::IndirectCond            0      0.00%    100.00% # Number of branches where the target was incorrect or not available at prediction time. (Count)
system.node0.cpus0.branchPred.targetWrong_0::IndirectUncond            0      0.00%    100.00% # Number of branches where the target was incorrect or not available at prediction time. (Count)
system.node0.cpus0.branchPred.targetWrong_0::total        21255                       # Number of branches where the target was incorrect or not available at prediction time. (Count)
system.node0.cpus0.branchPred.condPredicted       564675                       # Number of conditional branches predicted (Count)
system.node0.cpus0.branchPred.condPredictedTaken       350052                       # Number of conditional branches predicted as taken (Count)
system.node0.cpus0.branchPred.condIncorrect        19591                       # Number of conditional branches incorrect (Count)
system.node0.cpus0.branchPred.predTakenBTBMiss         2840                       # Number of branches predicted taken but missed in BTB (Count)
system.node0.cpus0.branchPred.BTBLookups       660421                       # Number of BTB lookups (Count)
system.node0.cpus0.branchPred.BTBUpdates         7977                       # Number of BTB updates (Count)
system.node0.cpus0.branchPred.BTBHits          486095                       # Number of BTB hits (Count)
system.node0.cpus0.branchPred.BTBHitRatio     0.736038                       # BTB Hit Ratio (Ratio)
system.node0.cpus0.branchPred.BTBMispredicted         3831                       # Number BTB mispredictions. No target found or target wrong (Count)
system.node0.cpus0.branchPred.indirectLookups        15235                       # Number of indirect predictor lookups. (Count)
system.node0.cpus0.branchPred.indirectHits         9314                       # Number of indirect target hits. (Count)
system.node0.cpus0.branchPred.indirectMisses         5921                       # Number of indirect misses. (Count)
system.node0.cpus0.branchPred.indirectMispredicted            0                       # Number of mispredicted indirect branches. (Count)
system.node0.cpus0.branchPred.btb.lookups::NoBranch          437      0.07%      0.07% # Number of BTB lookups (Count)
system.node0.cpus0.branchPred.btb.lookups::Return        25950      3.93%      4.00% # Number of BTB lookups (Count)
system.node0.cpus0.branchPred.btb.lookups::CallDirect        25248      3.82%      7.82% # Number of BTB lookups (Count)
system.node0.cpus0.branchPred.btb.lookups::CallIndirect          931      0.14%      7.96% # Number of BTB lookups (Count)
system.node0.cpus0.branchPred.btb.lookups::DirectCond       564675     85.50%     93.46% # Number of BTB lookups (Count)
system.node0.cpus0.branchPred.btb.lookups::DirectUncond        28876      4.37%     97.83% # Number of BTB lookups (Count)
system.node0.cpus0.branchPred.btb.lookups::IndirectCond            0      0.00%     97.83% # Number of BTB lookups (Count)
system.node0.cpus0.branchPred.btb.lookups::IndirectUncond        14304      2.17%    100.00% # Number of BTB lookups (Count)
system.node0.cpus0.branchPred.btb.lookups::total       660421                       # Number of BTB lookups (Count)
system.node0.cpus0.branchPred.btb.misses::NoBranch           88      0.05%      0.05% # Number of BTB misses (Count)
system.node0.cpus0.branchPred.btb.misses::Return        25950     14.89%     14.94% # Number of BTB misses (Count)
system.node0.cpus0.branchPred.btb.misses::CallDirect         1802      1.03%     15.97% # Number of BTB misses (Count)
system.node0.cpus0.branchPred.btb.misses::CallIndirect          931      0.53%     16.50% # Number of BTB misses (Count)
system.node0.cpus0.branchPred.btb.misses::DirectCond       130175     74.67%     91.18% # Number of BTB misses (Count)
system.node0.cpus0.branchPred.btb.misses::DirectUncond         1076      0.62%     91.79% # Number of BTB misses (Count)
system.node0.cpus0.branchPred.btb.misses::IndirectCond            0      0.00%     91.79% # Number of BTB misses (Count)
system.node0.cpus0.branchPred.btb.misses::IndirectUncond        14304      8.21%    100.00% # Number of BTB misses (Count)
system.node0.cpus0.branchPred.btb.misses::total       174326                       # Number of BTB misses (Count)
system.node0.cpus0.branchPred.btb.updates::NoBranch           60      0.75%      0.75% # Number of BTB updates (Count)
system.node0.cpus0.branchPred.btb.updates::Return            0      0.00%      0.75% # Number of BTB updates (Count)
system.node0.cpus0.branchPred.btb.updates::CallDirect         1226     15.37%     16.12% # Number of BTB updates (Count)
system.node0.cpus0.branchPred.btb.updates::CallIndirect            0      0.00%     16.12% # Number of BTB updates (Count)
system.node0.cpus0.branchPred.btb.updates::DirectCond         5946     74.54%     90.66% # Number of BTB updates (Count)
system.node0.cpus0.branchPred.btb.updates::DirectUncond          745      9.34%    100.00% # Number of BTB updates (Count)
system.node0.cpus0.branchPred.btb.updates::IndirectCond            0      0.00%    100.00% # Number of BTB updates (Count)
system.node0.cpus0.branchPred.btb.updates::IndirectUncond            0      0.00%    100.00% # Number of BTB updates (Count)
system.node0.cpus0.branchPred.btb.updates::total         7977                       # Number of BTB updates (Count)
system.node0.cpus0.branchPred.btb.mispredict::NoBranch           60      0.75%      0.75% # Number of BTB mispredictions. No target found or target wrong. (Count)
system.node0.cpus0.branchPred.btb.mispredict::Return            0      0.00%      0.75% # Number of BTB mispredictions. No target found or target wrong. (Count)
system.node0.cpus0.branchPred.btb.mispredict::CallDirect         1226     15.37%     16.12% # Number of BTB mispredictions. No target found or target wrong. (Count)
system.node0.cpus0.branchPred.btb.mispredict::CallIndirect            0      0.00%     16.12% # Number of BTB mispredictions. No target found or target wrong. (Count)
system.node0.cpus0.branchPred.btb.mispredict::DirectCond         5946     74.54%     90.66% # Number of BTB mispredictions. No target found or target wrong. (Count)
system.node0.cpus0.branchPred.btb.mispredict::DirectUncond          745      9.34%    100.00% # Number of BTB mispredictions. No target found or target wrong. (Count)
system.node0.cpus0.branchPred.btb.mispredict::IndirectCond            0      0.00%    100.00% # Number of BTB mispredictions. No target found or target wrong. (Count)
system.node0.cpus0.branchPred.btb.mispredict::IndirectUncond            0      0.00%    100.00% # Number of BTB mispredictions. No target found or target wrong. (Count)
system.node0.cpus0.branchPred.btb.mispredict::total         7977                       # Number of BTB mispredictions. No target found or target wrong. (Count)
system.node0.cpus0.branchPred.btb.power_state.pwrStateResidencyTicks::UNDEFINED  11837242000                       # Cumulative time (in ticks) in various power states (Tick)
system.node0.cpus0.branchPred.indirectBranchPred.lookups        15235                       # Number of lookups (Count)
system.node0.cpus0.branchPred.indirectBranchPred.hits         9314                       # Number of hits of a tag (Count)
system.node0.cpus0.branchPred.indirectBranchPred.misses         5921                       # Number of misses (Count)
system.node0.cpus0.branchPred.indirectBranchPred.targetRecords          807                       # Number of targets that where recorded/installed in the cache (Count)
system.node0.cpus0.branchPred.indirectBranchPred.indirectRecords        16042                       # Number of indirect branches/calls recorded in the indirect hist (Count)
system.node0.cpus0.branchPred.indirectBranchPred.speculativeOverflows           11                       # Number of times more than the allowed capacity for speculative branches/calls where in flight and destroy the path history (Count)
system.node0.cpus0.branchPred.ras.pushes        32932                       # Number of times a PC was pushed onto the RAS (Count)
system.node0.cpus0.branchPred.ras.pops          32927                       # Number of times a PC was poped from the RAS (Count)
system.node0.cpus0.branchPred.ras.squashes        13730                       # Number of times the stack operation was squashed due to wrong speculation. (Count)
system.node0.cpus0.branchPred.ras.used          19197                       # Number of times the RAS is the provider (Count)
system.node0.cpus0.branchPred.ras.correct        19197                       # Number of times the RAS is the provider and the prediction is correct (Count)
system.node0.cpus0.branchPred.ras.incorrect            0                       # Number of times the RAS is the provider and the prediction is wrong (Count)
system.node0.cpus0.clk_domain.clock               200                       # Clock period in ticks (Tick)
system.node0.cpus0.clk_domain.voltage_domain.voltage            1                       # Voltage in Volts (Volt)
system.node0.cpus0.commit.status::running     56121536     99.99%     99.99% # Number of cycles commit is running (Cycle)
system.node0.cpus0.commit.status::idle              1      0.00%     99.99% # Number of cycles commit is idle (Cycle)
system.node0.cpus0.commit.status::trapPending         6838      0.01%    100.00% # Number of cycles commit is processing a trap (Cycle)
system.node0.cpus0.commit.commitSquashedInsts       701088                       # The number of squashed insts skipped by commit (Count)
system.node0.cpus0.commit.commitNonSpecStalls         3559                       # The number of times commit has been forced to stall to communicate backwards (Count)
system.node0.cpus0.commit.branchMispredicts        19609                       # The number of times a branch was mispredicted (Count)
system.node0.cpus0.commit.numCommittedDist::samples     56107356                       # Number of insts commited each cycle (Count)
system.node0.cpus0.commit.numCommittedDist::mean     0.208286                       # Number of insts commited each cycle (Count)
system.node0.cpus0.commit.numCommittedDist::stdev     1.175504                       # Number of insts commited each cycle (Count)
system.node0.cpus0.commit.numCommittedDist::underflows            0      0.00%      0.00% # Number of insts commited each cycle (Count)
system.node0.cpus0.commit.numCommittedDist::0     53907118     96.08%     96.08% # Number of insts commited each cycle (Count)
system.node0.cpus0.commit.numCommittedDist::1       312738      0.56%     96.64% # Number of insts commited each cycle (Count)
system.node0.cpus0.commit.numCommittedDist::2       324703      0.58%     97.21% # Number of insts commited each cycle (Count)
system.node0.cpus0.commit.numCommittedDist::3       131373      0.23%     97.45% # Number of insts commited each cycle (Count)
system.node0.cpus0.commit.numCommittedDist::4       119452      0.21%     97.66% # Number of insts commited each cycle (Count)
system.node0.cpus0.commit.numCommittedDist::5       118547      0.21%     97.87% # Number of insts commited each cycle (Count)
system.node0.cpus0.commit.numCommittedDist::6       116598      0.21%     98.08% # Number of insts commited each cycle (Count)
system.node0.cpus0.commit.numCommittedDist::7        54633      0.10%     98.18% # Number of insts commited each cycle (Count)
system.node0.cpus0.commit.numCommittedDist::8      1022194      1.82%    100.00% # Number of insts commited each cycle (Count)
system.node0.cpus0.commit.numCommittedDist::overflows            0      0.00%    100.00% # Number of insts commited each cycle (Count)
system.node0.cpus0.commit.numCommittedDist::min_value            0                       # Number of insts commited each cycle (Count)
system.node0.cpus0.commit.numCommittedDist::max_value            8                       # Number of insts commited each cycle (Count)
system.node0.cpus0.commit.numCommittedDist::total     56107356                       # Number of insts commited each cycle (Count)
system.node0.cpus0.commit.amos                      0                       # Number of atomic instructions committed (Count)
system.node0.cpus0.commit.membars                2350                       # Number of memory barriers committed (Count)
system.node0.cpus0.commit.committedInstType_0::No_OpClass        31734      0.27%      0.27% # Class of committed instruction (Count)
system.node0.cpus0.commit.committedInstType_0::IntAlu      4472323     38.27%     38.54% # Class of committed instruction (Count)
system.node0.cpus0.commit.committedInstType_0::IntMult        60679      0.52%     39.06% # Class of committed instruction (Count)
system.node0.cpus0.commit.committedInstType_0::IntDiv         3267      0.03%     39.09% # Class of committed instruction (Count)
system.node0.cpus0.commit.committedInstType_0::FloatAdd        75724      0.65%     39.74% # Class of committed instruction (Count)
system.node0.cpus0.commit.committedInstType_0::FloatCmp            0      0.00%     39.74% # Class of committed instruction (Count)
system.node0.cpus0.commit.committedInstType_0::FloatCvt            0      0.00%     39.74% # Class of committed instruction (Count)
system.node0.cpus0.commit.committedInstType_0::FloatMult            0      0.00%     39.74% # Class of committed instruction (Count)
system.node0.cpus0.commit.committedInstType_0::FloatMultAcc            0      0.00%     39.74% # Class of committed instruction (Count)
system.node0.cpus0.commit.committedInstType_0::FloatDiv            0      0.00%     39.74% # Class of committed instruction (Count)
system.node0.cpus0.commit.committedInstType_0::FloatMisc            0      0.00%     39.74% # Class of committed instruction (Count)
system.node0.cpus0.commit.committedInstType_0::FloatSqrt            0      0.00%     39.74% # Class of committed instruction (Count)
system.node0.cpus0.commit.committedInstType_0::SimdAdd          272      0.00%     39.74% # Class of committed instruction (Count)
system.node0.cpus0.commit.committedInstType_0::SimdAddAcc            0      0.00%     39.74% # Class of committed instruction (Count)
system.node0.cpus0.commit.committedInstType_0::SimdAlu        72884      0.62%     40.36% # Class of committed instruction (Count)
system.node0.cpus0.commit.committedInstType_0::SimdCmp           16      0.00%     40.36% # Class of committed instruction (Count)
system.node0.cpus0.commit.committedInstType_0::SimdCvt         1370      0.01%     40.37% # Class of committed instruction (Count)
system.node0.cpus0.commit.committedInstType_0::SimdMisc        43261      0.37%     40.74% # Class of committed instruction (Count)
system.node0.cpus0.commit.committedInstType_0::SimdMult            0      0.00%     40.74% # Class of committed instruction (Count)
system.node0.cpus0.commit.committedInstType_0::SimdMultAcc            0      0.00%     40.74% # Class of committed instruction (Count)
system.node0.cpus0.commit.committedInstType_0::SimdMatMultAcc            0      0.00%     40.74% # Class of committed instruction (Count)
system.node0.cpus0.commit.committedInstType_0::SimdShift          918      0.01%     40.75% # Class of committed instruction (Count)
system.node0.cpus0.commit.committedInstType_0::SimdShiftAcc            0      0.00%     40.75% # Class of committed instruction (Count)
system.node0.cpus0.commit.committedInstType_0::SimdDiv            0      0.00%     40.75% # Class of committed instruction (Count)
system.node0.cpus0.commit.committedInstType_0::SimdSqrt            0      0.00%     40.75% # Class of committed instruction (Count)
system.node0.cpus0.commit.committedInstType_0::SimdFloatAdd      2192953     18.77%     59.52% # Class of committed instruction (Count)
system.node0.cpus0.commit.committedInstType_0::SimdFloatAlu            0      0.00%     59.52% # Class of committed instruction (Count)
system.node0.cpus0.commit.committedInstType_0::SimdFloatCmp        34820      0.30%     59.82% # Class of committed instruction (Count)
system.node0.cpus0.commit.committedInstType_0::SimdFloatCvt        53794      0.46%     60.28% # Class of committed instruction (Count)
system.node0.cpus0.commit.committedInstType_0::SimdFloatDiv           11      0.00%     60.28% # Class of committed instruction (Count)
system.node0.cpus0.commit.committedInstType_0::SimdFloatMisc            0      0.00%     60.28% # Class of committed instruction (Count)
system.node0.cpus0.commit.committedInstType_0::SimdFloatMult       577633      4.94%     65.22% # Class of committed instruction (Count)
system.node0.cpus0.commit.committedInstType_0::SimdFloatMultAcc            0      0.00%     65.22% # Class of committed instruction (Count)
system.node0.cpus0.commit.committedInstType_0::SimdFloatMatMultAcc            0      0.00%     65.22% # Class of committed instruction (Count)
system.node0.cpus0.commit.committedInstType_0::SimdFloatSqrt            4      0.00%     65.22% # Class of committed instruction (Count)
system.node0.cpus0.commit.committedInstType_0::SimdReduceAdd            0      0.00%     65.22% # Class of committed instruction (Count)
system.node0.cpus0.commit.committedInstType_0::SimdReduceAlu            0      0.00%     65.22% # Class of committed instruction (Count)
system.node0.cpus0.commit.committedInstType_0::SimdReduceCmp            0      0.00%     65.22% # Class of committed instruction (Count)
system.node0.cpus0.commit.committedInstType_0::SimdFloatReduceAdd            0      0.00%     65.22% # Class of committed instruction (Count)
system.node0.cpus0.commit.committedInstType_0::SimdFloatReduceCmp            0      0.00%     65.22% # Class of committed instruction (Count)
system.node0.cpus0.commit.committedInstType_0::SimdAes            0      0.00%     65.22% # Class of committed instruction (Count)
system.node0.cpus0.commit.committedInstType_0::SimdAesMix            0      0.00%     65.22% # Class of committed instruction (Count)
system.node0.cpus0.commit.committedInstType_0::SimdSha1Hash            0      0.00%     65.22% # Class of committed instruction (Count)
system.node0.cpus0.commit.committedInstType_0::SimdSha1Hash2            0      0.00%     65.22% # Class of committed instruction (Count)
system.node0.cpus0.commit.committedInstType_0::SimdSha256Hash            0      0.00%     65.22% # Class of committed instruction (Count)
system.node0.cpus0.commit.committedInstType_0::SimdSha256Hash2            0      0.00%     65.22% # Class of committed instruction (Count)
system.node0.cpus0.commit.committedInstType_0::SimdShaSigma2            0      0.00%     65.22% # Class of committed instruction (Count)
system.node0.cpus0.commit.committedInstType_0::SimdShaSigma3            0      0.00%     65.22% # Class of committed instruction (Count)
system.node0.cpus0.commit.committedInstType_0::SimdSha3            0      0.00%     65.22% # Class of committed instruction (Count)
system.node0.cpus0.commit.committedInstType_0::SimdSm4e            0      0.00%     65.22% # Class of committed instruction (Count)
system.node0.cpus0.commit.committedInstType_0::SimdCrc            0      0.00%     65.22% # Class of committed instruction (Count)
system.node0.cpus0.commit.committedInstType_0::SimdPredAlu            0      0.00%     65.22% # Class of committed instruction (Count)
system.node0.cpus0.commit.committedInstType_0::SimdDotProd            0      0.00%     65.22% # Class of committed instruction (Count)
system.node0.cpus0.commit.committedInstType_0::Matrix            0      0.00%     65.22% # Class of committed instruction (Count)
system.node0.cpus0.commit.committedInstType_0::MatrixMov            0      0.00%     65.22% # Class of committed instruction (Count)
system.node0.cpus0.commit.committedInstType_0::MatrixOP            0      0.00%     65.22% # Class of committed instruction (Count)
system.node0.cpus0.commit.committedInstType_0::MemRead       418010      3.58%     68.80% # Class of committed instruction (Count)
system.node0.cpus0.commit.committedInstType_0::MemWrite       207776      1.78%     70.57% # Class of committed instruction (Count)
[...]
system.node1.mem_ctrl.dram.avgQLat            7031.49                       # Average queueing delay per DRAM burst ((Tick/Count))
system.node1.mem_ctrl.dram.avgBusLat          5000.00                       # Average bus latency per DRAM burst ((Tick/Count))
system.node1.mem_ctrl.dram.avgMemAccLat      25781.49                       # Average memory access latency per DRAM burst ((Tick/Count))
system.node1.mem_ctrl.dram.readRowHits          13962                       # Number of row buffer hits during reads (Count)
system.node1.mem_ctrl.dram.writeRowHits             0                       # Number of row buffer hits during writes (Count)
system.node1.mem_ctrl.dram.readRowHitRate        80.54                       # Row buffer hit rate for reads (Ratio)
system.node1.mem_ctrl.dram.writeRowHitRate          nan                       # Row buffer hit rate for writes (Ratio)
system.node1.mem_ctrl.dram.bytesPerActivate::samples         3373                       # Bytes accessed per row activation (Byte)
system.node1.mem_ctrl.dram.bytesPerActivate::mean   328.917877                       # Bytes accessed per row activation (Byte)
system.node1.mem_ctrl.dram.bytesPerActivate::gmean   293.239938                       # Bytes accessed per row activation (Byte)
system.node1.mem_ctrl.dram.bytesPerActivate::stdev   145.400896                       # Bytes accessed per row activation (Byte)
system.node1.mem_ctrl.dram.bytesPerActivate::0-127          139      4.12%      4.12% # Bytes accessed per row activation (Byte)
system.node1.mem_ctrl.dram.bytesPerActivate::128-255          617     18.29%     22.41% # Bytes accessed per row activation (Byte)
system.node1.mem_ctrl.dram.bytesPerActivate::256-383         1205     35.72%     58.14% # Bytes accessed per row activation (Byte)
system.node1.mem_ctrl.dram.bytesPerActivate::384-511          582     17.25%     75.39% # Bytes accessed per row activation (Byte)
system.node1.mem_ctrl.dram.bytesPerActivate::512-639          807     23.93%     99.32% # Bytes accessed per row activation (Byte)
system.node1.mem_ctrl.dram.bytesPerActivate::640-767            4      0.12%     99.44% # Bytes accessed per row activation (Byte)
system.node1.mem_ctrl.dram.bytesPerActivate::768-895            6      0.18%     99.61% # Bytes accessed per row activation (Byte)
system.node1.mem_ctrl.dram.bytesPerActivate::896-1023            1      0.03%     99.64% # Bytes accessed per row activation (Byte)
system.node1.mem_ctrl.dram.bytesPerActivate::1024-1151           12      0.36%    100.00% # Bytes accessed per row activation (Byte)
system.node1.mem_ctrl.dram.bytesPerActivate::total         3373                       # Bytes accessed per row activation (Byte)
system.node1.mem_ctrl.dram.dramBytesRead      1109440                       # Total bytes read (Byte)
system.node1.mem_ctrl.dram.dramBytesWritten            0                       # Total bytes written (Byte)
system.node1.mem_ctrl.dram.avgRdBW          93.724535                       # Average DRAM read bandwidth in MiBytes/s ((Byte/Second))
system.node1.mem_ctrl.dram.avgWrBW                  0                       # Average DRAM write bandwidth in MiBytes/s ((Byte/Second))
system.node1.mem_ctrl.dram.peakBW            12800.00                       # Theoretical peak bandwidth in MiByte/s ((Byte/Second))
system.node1.mem_ctrl.dram.busUtil               0.73                       # Data bus utilization in percentage (Ratio)
system.node1.mem_ctrl.dram.busUtilRead           0.73                       # Data bus utilization in percentage for reads (Ratio)
system.node1.mem_ctrl.dram.busUtilWrite          0.00                       # Data bus utilization in percentage for writes (Ratio)
system.node1.mem_ctrl.dram.pageHitRate          80.54                       # Row buffer hit rate, read and write combined (Ratio)
system.node1.mem_ctrl.dram.power_state.pwrStateResidencyTicks::UNDEFINED  11837242000                       # Cumulative time (in ticks) in various power states (Tick)
system.node1.mem_ctrl.dram.rank0.actEnergy     24083220                       # Energy for activate commands per rank (pJ) (Joule)
system.node1.mem_ctrl.dram.rank0.preEnergy     12800535                       # Energy for precharge commands per rank (pJ) (Joule)
system.node1.mem_ctrl.dram.rank0.readEnergy    123771900                       # Energy for read commands per rank (pJ) (Joule)
system.node1.mem_ctrl.dram.rank0.writeEnergy            0                       # Energy for write commands per rank (pJ) (Joule)
system.node1.mem_ctrl.dram.rank0.refreshEnergy 934252800.000000                       # Energy for refresh commands per rank (pJ) (Joule)
system.node1.mem_ctrl.dram.rank0.actBackEnergy   4623324150                       # Energy for active background per rank (pJ) (Joule)
system.node1.mem_ctrl.dram.rank0.preBackEnergy    652175520                       # Energy for precharge background per rank (pJ) (Joule)
system.node1.mem_ctrl.dram.rank0.actPowerDownEnergy            0                       # Energy for active power-down per rank (pJ) (Joule)
system.node1.mem_ctrl.dram.rank0.prePowerDownEnergy            0                       # Energy for precharge power-down per rank (pJ) (Joule)
system.node1.mem_ctrl.dram.rank0.selfRefreshEnergy            0                       # Energy for self refresh per rank (pJ) (Joule)
system.node1.mem_ctrl.dram.rank0.totalEnergy   6370408125                       # Total energy per rank (pJ) (Joule)
system.node1.mem_ctrl.dram.rank0.averagePower   538.166587                       # Core power per rank (mW) (Watt)
system.node1.mem_ctrl.dram.rank0.totalIdleTime            0                       # Total Idle time Per DRAM Rank (Tick)
system.node1.mem_ctrl.dram.rank0.pwrStateTime::IDLE   1657600550                       # Time in different power states (Tick)
system.node1.mem_ctrl.dram.rank0.pwrStateTime::REF    395200000                       # Time in different power states (Tick)
system.node1.mem_ctrl.dram.rank0.pwrStateTime::SREF            0                       # Time in different power states (Tick)
system.node1.mem_ctrl.dram.rank0.pwrStateTime::PRE_PDN            0                       # Time in different power states (Tick)
system.node1.mem_ctrl.dram.rank0.pwrStateTime::ACT   9784441450                       # Time in different power states (Tick)
system.node1.mem_ctrl.dram.rank0.pwrStateTime::ACT_PDN            0                       # Time in different power states (Tick)
system.node1.mem_ctrl.power_state.pwrStateResidencyTicks::UNDEFINED  11837242000                       # Cumulative time (in ticks) in various power states (Tick)
system.node1.xbar.transDist::ReadResp           11171                       # Transaction distribution (Count)
system.node1.xbar.transDist::ReadExReq          18649                       # Transaction distribution (Count)
system.node1.xbar.transDist::ReadExResp         18649                       # Transaction distribution (Count)
system.node1.xbar.transDist::ReadSharedReq        11171                       # Transaction distribution (Count)
system.node1.xbar.pktCount_system.node1.cpus0.l2cache.mem_side_port::system.bridge1.cpu_side_port         3122                       # Packet count per connected requestor and responder (Count)
system.node1.xbar.pktCount_system.node1.cpus0.l2cache.mem_side_port::total         3122                       # Packet count per connected requestor and responder (Count)
system.node1.xbar.pktCount_system.node1.cpus1.l2cache.mem_side_port::system.bridge1.cpu_side_port         3120                       # Packet count per connected requestor and responder (Count)
system.node1.xbar.pktCount_system.node1.cpus1.l2cache.mem_side_port::total         3120                       # Packet count per connected requestor and responder (Count)
system.node1.xbar.pktCount_system.node1.cpus2.l2cache.mem_side_port::system.bridge1.cpu_side_port         3122                       # Packet count per connected requestor and responder (Count)
system.node1.xbar.pktCount_system.node1.cpus2.l2cache.mem_side_port::total         3122                       # Packet count per connected requestor and responder (Count)
system.node1.xbar.pktCount_system.node1.cpus3.l2cache.mem_side_port::system.bridge1.cpu_side_port         3122                       # Packet count per connected requestor and responder (Count)
system.node1.xbar.pktCount_system.node1.cpus3.l2cache.mem_side_port::total         3122                       # Packet count per connected requestor and responder (Count)
system.node1.xbar.pktCount_system.node1.cpus4.l2cache.mem_side_port::system.bridge1.cpu_side_port         3122                       # Packet count per connected requestor and responder (Count)
system.node1.xbar.pktCount_system.node1.cpus4.l2cache.mem_side_port::total         3122                       # Packet count per connected requestor and responder (Count)
system.node1.xbar.pktCount_system.node1.cpus5.l2cache.mem_side_port::system.bridge1.cpu_side_port         3122                       # Packet count per connected requestor and responder (Count)
system.node1.xbar.pktCount_system.node1.cpus5.l2cache.mem_side_port::total         3122                       # Packet count per connected requestor and responder (Count)
system.node1.xbar.pktCount_system.node1.cpus6.l2cache.mem_side_port::system.bridge1.cpu_side_port         3120                       # Packet count per connected requestor and responder (Count)
system.node1.xbar.pktCount_system.node1.cpus6.l2cache.mem_side_port::total         3120                       # Packet count per connected requestor and responder (Count)
system.node1.xbar.pktCount_system.node1.cpus7.l2cache.mem_side_port::system.bridge1.cpu_side_port         3120                       # Packet count per connected requestor and responder (Count)
system.node1.xbar.pktCount_system.node1.cpus7.l2cache.mem_side_port::total         3120                       # Packet count per connected requestor and responder (Count)
system.node1.xbar.pktCount_system.bridge0.mem_side_port::system.node1.mem_ctrl.port        34670                       # Packet count per connected requestor and responder (Count)
system.node1.xbar.pktCount_system.bridge0.mem_side_port::total        34670                       # Packet count per connected requestor and responder (Count)
system.node1.xbar.pktCount::total               59640                       # Packet count per connected requestor and responder (Count)
system.node1.xbar.pktSize_system.node1.cpus0.l2cache.mem_side_port::system.bridge1.cpu_side_port        99904                       # Cumulative packet size per connected requestor and responder (Byte)
system.node1.xbar.pktSize_system.node1.cpus0.l2cache.mem_side_port::total        99904                       # Cumulative packet size per connected requestor and responder (Byte)
system.node1.xbar.pktSize_system.node1.cpus1.l2cache.mem_side_port::system.bridge1.cpu_side_port        99840                       # Cumulative packet size per connected requestor and responder (Byte)
system.node1.xbar.pktSize_system.node1.cpus1.l2cache.mem_side_port::total        99840                       # Cumulative packet size per connected requestor and responder (Byte)
system.node1.xbar.pktSize_system.node1.cpus2.l2cache.mem_side_port::system.bridge1.cpu_side_port        99904                       # Cumulative packet size per connected requestor and responder (Byte)
system.node1.xbar.pktSize_system.node1.cpus2.l2cache.mem_side_port::total        99904                       # Cumulative packet size per connected requestor and responder (Byte)
system.node1.xbar.pktSize_system.node1.cpus3.l2cache.mem_side_port::system.bridge1.cpu_side_port        99904                       # Cumulative packet size per connected requestor and responder (Byte)
system.node1.xbar.pktSize_system.node1.cpus3.l2cache.mem_side_port::total        99904                       # Cumulative packet size per connected requestor and responder (Byte)
system.node1.xbar.pktSize_system.node1.cpus4.l2cache.mem_side_port::system.bridge1.cpu_side_port        99904                       # Cumulative packet size per connected requestor and responder (Byte)
system.node1.xbar.pktSize_system.node1.cpus4.l2cache.mem_side_port::total        99904                       # Cumulative packet size per connected requestor and responder (Byte)
system.node1.xbar.pktSize_system.node1.cpus5.l2cache.mem_side_port::system.bridge1.cpu_side_port        99904                       # Cumulative packet size per connected requestor and responder (Byte)
system.node1.xbar.pktSize_system.node1.cpus5.l2cache.mem_side_port::total        99904                       # Cumulative packet size per connected requestor and responder (Byte)
system.node1.xbar.pktSize_system.node1.cpus6.l2cache.mem_side_port::system.bridge1.cpu_side_port        99840                       # Cumulative packet size per connected requestor and responder (Byte)
system.node1.xbar.pktSize_system.node1.cpus6.l2cache.mem_side_port::total        99840                       # Cumulative packet size per connected requestor and responder (Byte)
system.node1.xbar.pktSize_system.node1.cpus7.l2cache.mem_side_port::system.bridge1.cpu_side_port        99840                       # Cumulative packet size per connected requestor and responder (Byte)
system.node1.xbar.pktSize_system.node1.cpus7.l2cache.mem_side_port::total        99840                       # Cumulative packet size per connected requestor and responder (Byte)
system.node1.xbar.pktSize_system.bridge0.mem_side_port::system.node1.mem_ctrl.port      1109440                       # Cumulative packet size per connected requestor and responder (Byte)
system.node1.xbar.pktSize_system.bridge0.mem_side_port::total      1109440                       # Cumulative packet size per connected requestor and responder (Byte)
system.node1.xbar.pktSize::total              1908480                       # Cumulative packet size per connected requestor and responder (Byte)
system.node1.xbar.snoops                            0                       # Total snoops (Count)
system.node1.xbar.snoopTraffic                      0                       # Total snoop traffic (Byte)
system.node1.xbar.snoopFanout::samples          34733                       # Request fanout histogram (Count)
system.node1.xbar.snoopFanout::mean                 0                       # Request fanout histogram (Count)
system.node1.xbar.snoopFanout::stdev                0                       # Request fanout histogram (Count)
system.node1.xbar.snoopFanout::underflows            0      0.00%      0.00% # Request fanout histogram (Count)
system.node1.xbar.snoopFanout::0                34733    100.00%    100.00% # Request fanout histogram (Count)
system.node1.xbar.snoopFanout::1                    0      0.00%    100.00% # Request fanout histogram (Count)
system.node1.xbar.snoopFanout::2                    0      0.00%    100.00% # Request fanout histogram (Count)
system.node1.xbar.snoopFanout::3                    0      0.00%    100.00% # Request fanout histogram (Count)
system.node1.xbar.snoopFanout::4                    0      0.00%    100.00% # Request fanout histogram (Count)
system.node1.xbar.snoopFanout::5                    0      0.00%    100.00% # Request fanout histogram (Count)
system.node1.xbar.snoopFanout::6                    0      0.00%    100.00% # Request fanout histogram (Count)
system.node1.xbar.snoopFanout::7                    0      0.00%    100.00% # Request fanout histogram (Count)
system.node1.xbar.snoopFanout::8                    0      0.00%    100.00% # Request fanout histogram (Count)
system.node1.xbar.snoopFanout::overflows            0      0.00%    100.00% # Request fanout histogram (Count)
system.node1.xbar.snoopFanout::min_value            0                       # Request fanout histogram (Count)
system.node1.xbar.snoopFanout::max_value            0                       # Request fanout histogram (Count)
system.node1.xbar.snoopFanout::total            34733                       # Request fanout histogram (Count)
system.node1.xbar.power_state.pwrStateResidencyTicks::UNDEFINED  11837242000                       # Cumulative time (in ticks) in various power states (Tick)
system.node1.xbar.reqLayer0.occupancy        22822000                       # Layer occupancy (ticks) (Tick)
system.node1.xbar.reqLayer0.utilization           0.0                       # Layer utilization (Ratio)
system.node1.xbar.reqLayer17.occupancy       22184572                       # Layer occupancy (ticks) (Tick)
system.node1.xbar.reqLayer17.utilization          0.0                       # Layer utilization (Ratio)
system.node1.xbar.respLayer1.occupancy        7805000                       # Layer occupancy (ticks) (Tick)
system.node1.xbar.respLayer1.utilization          0.0                       # Layer utilization (Ratio)
system.node1.xbar.respLayer13.occupancy       7805000                       # Layer occupancy (ticks) (Tick)
system.node1.xbar.respLayer13.utilization          0.0                       # Layer utilization (Ratio)
system.node1.xbar.respLayer17.occupancy       7805000                       # Layer occupancy (ticks) (Tick)
system.node1.xbar.respLayer17.utilization          0.0                       # Layer utilization (Ratio)
system.node1.xbar.respLayer21.occupancy       7805000                       # Layer occupancy (ticks) (Tick)
system.node1.xbar.respLayer21.utilization          0.0                       # Layer utilization (Ratio)
system.node1.xbar.respLayer25.occupancy       7800000                       # Layer occupancy (ticks) (Tick)
system.node1.xbar.respLayer25.utilization          0.0                       # Layer utilization (Ratio)
system.node1.xbar.respLayer29.occupancy       7800000                       # Layer occupancy (ticks) (Tick)
system.node1.xbar.respLayer29.utilization          0.0                       # Layer utilization (Ratio)
system.node1.xbar.respLayer32.occupancy      91066750                       # Layer occupancy (ticks) (Tick)
system.node1.xbar.respLayer32.utilization          0.0                       # Layer utilization (Ratio)
system.node1.xbar.respLayer5.occupancy        7800000                       # Layer occupancy (ticks) (Tick)
system.node1.xbar.respLayer5.utilization          0.0                       # Layer utilization (Ratio)
system.node1.xbar.respLayer9.occupancy        7805000                       # Layer occupancy (ticks) (Tick)
system.node1.xbar.respLayer9.utilization          0.0                       # Layer utilization (Ratio)
system.node1.xbar.snoop_filter.totRequests        17398                       # Total number of requests made to the snoop filter. (Count)
system.node1.xbar.snoop_filter.hitSingleRequests            0                       # Number of requests hitting in the snoop filter with a single holder of the requested data. (Count)
system.node1.xbar.snoop_filter.hitMultiRequests            0                       # Number of requests hitting in the snoop filter with multiple (>1) holders of the requested data. (Count)
system.node1.xbar.snoop_filter.totSnoops            0                       # Total number of snoops made to the snoop filter. (Count)
system.node1.xbar.snoop_filter.hitSingleSnoops            0                       # Number of snoops hitting in the snoop filter with a single holder of the requested data. (Count)
system.node1.xbar.snoop_filter.hitMultiSnoops            0                       # Number of snoops hitting in the snoop filter with multiple (>1) holders of the requested data. (Count)
system.workload.inst.arm                            0                       # number of arm instructions executed (Count)
system.workload.inst.quiesce                        0                       # number of quiesce instructions executed (Count)

---------- End Simulation Statistics   ----------
