
---------- Begin Simulation Statistics ----------
simSeconds                                   0.002102                       # Number of seconds simulated (Second)
simTicks                                   2102091250                       # Number of ticks simulated (Tick)
finalTick                                  2102091250                       # Number of ticks from beginning of simulation (restored from checkpoints and never reset) (Tick)
simFreq                                  1000000000000                       # The number of ticks per simulated second ((Tick/Second))
hostSeconds                                     51.20                       # Real time elapsed on the host (Second)
hostTickRate                                 41059602                       # The number of ticks simulated per host second (ticks/s) ((Tick/Second))
hostMemory                                    4196488                       # Number of bytes of host memory used (Byte)
simInsts                                     25759132                       # Number of instructions simulated (Count)
simOps                                       47574367                       # Number of ops (including micro ops) simulated (Count)
hostInstRate                                   503146                       # Simulator instruction rate (inst/s) ((Count/Second))
hostOpRate                                     929257                       # Simulator op (including micro ops) rate (op/s) ((Count/Second))
system.clk_domain.clock                          1000                       # Clock period in ticks (Tick)
system.clk_domain.voltage_domain.voltage            1                       # Voltage in Volts (Volt)
system.cpus0.numCycles                        8408366                       # Number of cpu cycles simulated (Cycle)
system.cpus0.cpi                             0.666186                       # CPI: cycles per instruction (core level) ((Cycle/Count))
system.cpus0.ipc                             1.501082                       # IPC: instructions per cycle (core level) ((Count/Cycle))
system.cpus0.numWorkItemsStarted                    0                       # Number of work items this cpu started (Count)
system.cpus0.numWorkItemsCompleted                  0                       # Number of work items this cpu completed (Count)
system.cpus0.instsAdded                      24492468                       # Number of instructions added to the IQ (excludes non-spec) (Count)
system.cpus0.nonSpecInstsAdded                   4446                       # Number of non-speculative instructions added to the IQ (Count)
system.cpus0.instsIssued                     24104241                       # Number of instructions issued (Count)
system.cpus0.squashedInstsIssued                25012                       # Number of squashed instructions issued (Count)
system.cpus0.squashedInstsExamined            1065532                       # Number of squashed instructions iterated over during squash; mainly for profiling (Count)
system.cpus0.squashedOperandsExamined         1953166                       # Number of squashed operands that are examined and possibly removed from graph (Count)
system.cpus0.squashedNonSpecRemoved               938                       # Number of squashed non-spec instructions that were removed (Count)
system.cpus0.numIssuedDist::samples           8044232                       # Number of insts issued each cycle (Count)
system.cpus0.numIssuedDist::mean             2.996463                       # Number of insts issued each cycle (Count)
system.cpus0.numIssuedDist::stdev            2.989445                       # Number of insts issued each cycle (Count)
system.cpus0.numIssuedDist::underflows              0      0.00%      0.00% # Number of insts issued each cycle (Count)
system.cpus0.numIssuedDist::0                 3272949     40.69%     40.69% # Number of insts issued each cycle (Count)
system.cpus0.numIssuedDist::1                  365869      4.55%     45.24% # Number of insts issued each cycle (Count)
system.cpus0.numIssuedDist::2                  410934      5.11%     50.34% # Number of insts issued each cycle (Count)
system.cpus0.numIssuedDist::3                  456879      5.68%     56.02% # Number of insts issued each cycle (Count)
system.cpus0.numIssuedDist::4                  575234      7.15%     63.17% # Number of insts issued each cycle (Count)
system.cpus0.numIssuedDist::5                  766381      9.53%     72.70% # Number of insts issued each cycle (Count)
system.cpus0.numIssuedDist::6                  706023      8.78%     81.48% # Number of insts issued each cycle (Count)
system.cpus0.numIssuedDist::7                  742816      9.23%     90.71% # Number of insts issued each cycle (Count)
system.cpus0.numIssuedDist::8                  747147      9.29%    100.00% # Number of insts issued each cycle (Count)
system.cpus0.numIssuedDist::overflows               0      0.00%    100.00% # Number of insts issued each cycle (Count)
system.cpus0.numIssuedDist::min_value               0                       # Number of insts issued each cycle (Count)
system.cpus0.numIssuedDist::max_value               8                       # Number of insts issued each cycle (Count)
system.cpus0.numIssuedDist::total             8044232                       # Number of insts issued each cycle (Count)
system.cpus0.statFuBusy::No_OpClass                 0      0.00%      0.00% # attempts to use FU when none available (Count)
system.cpus0.statFuBusy::IntAlu                115978      9.49%      9.49% # attempts to use FU when none available (Count)
system.cpus0.statFuBusy::IntMult                    0      0.00%      9.49% # attempts to use FU when none available (Count)
system.cpus0.statFuBusy::IntDiv                     0      0.00%      9.49% # attempts to use FU when none available (Count)
system.cpus0.statFuBusy::FloatAdd                   0      0.00%      9.49% # attempts to use FU when none available (Count)
system.cpus0.statFuBusy::FloatCmp                   0      0.00%      9.49% # attempts to use FU when none available (Count)
system.cpus0.statFuBusy::FloatCvt                   0      0.00%      9.49% # attempts to use FU when none available (Count)
system.cpus0.statFuBusy::FloatMult                  0      0.00%      9.49% # attempts to use FU when none available (Count)
system.cpus0.statFuBusy::FloatMultAcc               0      0.00%      9.49% # attempts to use FU when none available (Count)
system.cpus0.statFuBusy::FloatDiv                   0      0.00%      9.49% # attempts to use FU when none available (Count)
system.cpus0.statFuBusy::FloatMisc                  0      0.00%      9.49% # attempts to use FU when none available (Count)
system.cpus0.statFuBusy::FloatSqrt                  0      0.00%      9.49% # attempts to use FU when none available (Count)
system.cpus0.statFuBusy::SimdAdd                    0      0.00%      9.49% # attempts to use FU when none available (Count)
system.cpus0.statFuBusy::SimdAddAcc                 0      0.00%      9.49% # attempts to use FU when none available (Count)
system.cpus0.statFuBusy::SimdAlu                16801      1.38%     10.87% # attempts to use FU when none available (Count)
system.cpus0.statFuBusy::SimdCmp                    2      0.00%     10.87% # attempts to use FU when none available (Count)
system.cpus0.statFuBusy::SimdCvt                   14      0.00%     10.87% # attempts to use FU when none available (Count)
system.cpus0.statFuBusy::SimdMisc                  96      0.01%     10.88% # attempts to use FU when none available (Count)
system.cpus0.statFuBusy::SimdMult                   0      0.00%     10.88% # attempts to use FU when none available (Count)
system.cpus0.statFuBusy::SimdMultAcc                0      0.00%     10.88% # attempts to use FU when none available (Count)
system.cpus0.statFuBusy::SimdMatMultAcc             0      0.00%     10.88% # attempts to use FU when none available (Count)
system.cpus0.statFuBusy::SimdShift                  1      0.00%     10.88% # attempts to use FU when none available (Count)
system.cpus0.statFuBusy::SimdShiftAcc               0      0.00%     10.88% # attempts to use FU when none available (Count)
system.cpus0.statFuBusy::SimdDiv                    0      0.00%     10.88% # attempts to use FU when none available (Count)
system.cpus0.statFuBusy::SimdSqrt                   0      0.00%     10.88% # attempts to use FU when none available (Count)
system.cpus0.statFuBusy::SimdFloatAdd          131107     10.73%     21.61% # attempts to use FU when none available (Count)
system.cpus0.statFuBusy::SimdFloatAlu               0      0.00%     21.61% # attempts to use FU when none available (Count)
system.cpus0.statFuBusy::SimdFloatCmp            7273      0.60%     22.21% # attempts to use FU when none available (Count)
system.cpus0.statFuBusy::SimdFloatCvt               0      0.00%     22.21% # attempts to use FU when none available (Count)
system.cpus0.statFuBusy::SimdFloatDiv               0      0.00%     22.21% # attempts to use FU when none available (Count)
system.cpus0.statFuBusy::SimdFloatMisc              0      0.00%     22.21% # attempts to use FU when none available (Count)
system.cpus0.statFuBusy::SimdFloatMult          97994      8.02%     30.23% # attempts to use FU when none available (Count)
system.cpus0.statFuBusy::SimdFloatMultAcc            0      0.00%     30.23% # attempts to use FU when none available (Count)
system.cpus0.statFuBusy::SimdFloatMatMultAcc            0      0.00%     30.23% # attempts to use FU when none available (Count)
system.cpus0.statFuBusy::SimdFloatSqrt              0      0.00%     30.23% # attempts to use FU when none available (Count)
system.cpus0.statFuBusy::SimdReduceAdd              0      0.00%     30.23% # attempts to use FU when none available (Count)
system.cpus0.statFuBusy::SimdReduceAlu              0      0.00%     30.23% # attempts to use FU when none available (Count)
system.cpus0.statFuBusy::SimdReduceCmp              0      0.00%     30.23% # attempts to use FU when none available (Count)
system.cpus0.statFuBusy::SimdFloatReduceAdd            0      0.00%     30.23% # attempts to use FU when none available (Count)
system.cpus0.statFuBusy::SimdFloatReduceCmp            0      0.00%     30.23% # attempts to use FU when none available (Count)
system.cpus0.statFuBusy::SimdAes                    0      0.00%     30.23% # attempts to use FU when none available (Count)
system.cpus0.statFuBusy::SimdAesMix                 0      0.00%     30.23% # attempts to use FU when none available (Count)
system.cpus0.statFuBusy::SimdSha1Hash               0      0.00%     30.23% # attempts to use FU when none available (Count)
system.cpus0.statFuBusy::SimdSha1Hash2              0      0.00%     30.23% # attempts to use FU when none available (Count)
system.cpus0.statFuBusy::SimdSha256Hash             0      0.00%     30.23% # attempts to use FU when none available (Count)
system.cpus0.statFuBusy::SimdSha256Hash2            0      0.00%     30.23% # attempts to use FU when none available (Count)
system.cpus0.statFuBusy::SimdShaSigma2              0      0.00%     30.23% # attempts to use FU when none available (Count)
system.cpus0.statFuBusy::SimdShaSigma3              0      0.00%     30.23% # attempts to use FU when none available (Count)
system.cpus0.statFuBusy::SimdSha3                   0      0.00%     30.23% # attempts to use FU when none available (Count)
system.cpus0.statFuBusy::SimdSm4e                   0      0.00%     30.23% # attempts to use FU when none available (Count)
system.cpus0.statFuBusy::SimdCrc                    0      0.00%     30.23% # attempts to use FU when none available (Count)
system.cpus0.statFuBusy::SimdPredAlu                0      0.00%     30.23% # attempts to use FU when none available (Count)
system.cpus0.statFuBusy::SimdDotProd                0      0.00%     30.23% # attempts to use FU when none available (Count)
system.cpus0.statFuBusy::Matrix                     0      0.00%     30.23% # attempts to use FU when none available (Count)
system.cpus0.statFuBusy::MatrixMov                  0      0.00%     30.23% # attempts to use FU when none available (Count)
system.cpus0.statFuBusy::MatrixOP                   0      0.00%     30.23% # attempts to use FU when none available (Count)
system.cpus0.statFuBusy::MemRead                25495      2.09%     32.32% # attempts to use FU when none available (Count)
system.cpus0.statFuBusy::MemWrite                3620      0.30%     32.61% # attempts to use FU when none available (Count)
system.cpus0.statFuBusy::FloatMemRead          819563     67.09%     99.70% # attempts to use FU when none available (Count)
system.cpus0.statFuBusy::FloatMemWrite           3606      0.30%    100.00% # attempts to use FU when none available (Count)
system.cpus0.statFuBusy::InstPrefetch               0      0.00%    100.00% # attempts to use FU when none available (Count)
system.cpus0.statFuBusy::SimdUnitStrideLoad            0      0.00%    100.00% # attempts to use FU when none available (Count)
system.cpus0.statFuBusy::SimdUnitStrideStore            0      0.00%    100.00% # attempts to use FU when none available (Count)
system.cpus0.statFuBusy::SimdUnitStrideMaskLoad            0      0.00%    100.00% # attempts to use FU when none available (Count)
system.cpus0.statFuBusy::SimdUnitStrideMaskStore            0      0.00%    100.00% # attempts to use FU when none available (Count)
system.cpus0.statFuBusy::SimdStridedLoad            0      0.00%    100.00% # attempts to use FU when none available (Count)
system.cpus0.statFuBusy::SimdStridedStore            0      0.00%    100.00% # attempts to use FU when none available (Count)
system.cpus0.statFuBusy::SimdIndexedLoad            0      0.00%    100.00% # attempts to use FU when none available (Count)
system.cpus0.statFuBusy::SimdIndexedStore            0      0.00%    100.00% # attempts to use FU when none available (Count)
system.cpus0.statFuBusy::SimdWholeRegisterLoad            0      0.00%    100.00% # attempts to use FU when none available (Count)
system.cpus0.statFuBusy::SimdWholeRegisterStore            0      0.00%    100.00% # attempts to use FU when none available (Count)
system.cpus0.statFuBusy::SimdUnitStrideFaultOnlyFirstLoad            0      0.00%    100.00% # attempts to use FU when none available (Count)
system.cpus0.statFuBusy::SimdUnitStrideSegmentedLoad            0      0.00%    100.00% # attempts to use FU when none available (Count)
system.cpus0.statFuBusy::SimdUnitStrideSegmentedStore            0      0.00%    100.00% # attempts to use FU when none available (Count)
system.cpus0.statFuBusy::SimdUnitStrideSegmentedFaultOnlyFirstLoad            0      0.00%    100.00% # attempts to use FU when none available (Count)
system.cpus0.statFuBusy::SimdStrideSegmentedLoad            0      0.00%    100.00% # attempts to use FU when none available (Count)
system.cpus0.statFuBusy::SimdStrideSegmentedStore            0      0.00%    100.00% # attempts to use FU when none available (Count)
system.cpus0.statFuBusy::SimdExt                    0      0.00%    100.00% # attempts to use FU when none available (Count)
system.cpus0.statFuBusy::SimdFloatExt               0      0.00%    100.00% # attempts to use FU when none available (Count)
system.cpus0.statFuBusy::SimdConfig                 0      0.00%    100.00% # attempts to use FU when none available (Count)
system.cpus0.statFuBusy::SimdBf16Add                0      0.00%    100.00% # attempts to use FU when none available (Count)
system.cpus0.statFuBusy::SimdBf16Cmp                0      0.00%    100.00% # attempts to use FU when none available (Count)
system.cpus0.statFuBusy::SimdBf16Cvt                0      0.00%    100.00% # attempts to use FU when none available (Count)
system.cpus0.statFuBusy::SimdBf16DotProd            0      0.00%    100.00% # attempts to use FU when none available (Count)
system.cpus0.statFuBusy::SimdBf16MatMultAcc            0      0.00%    100.00% # attempts to use FU when none available (Count)
system.cpus0.statFuBusy::SimdBf16Mult               0      0.00%    100.00% # attempts to use FU when none available (Count)
system.cpus0.statFuBusy::SimdBf16MultAcc            0      0.00%    100.00% # attempts to use FU when none available (Count)
system.cpus0.statFuBusy::Bf16Cvt                    0      0.00%    100.00% # attempts to use FU when none available (Count)
system.cpus0.statFuBusy::System                     0      0.00%    100.00% # attempts to use FU when none available (Count)
system.cpus0.issuedInstType_0::No_OpClass        55847      0.23%      0.23% # Number of instructions issued per FU type, per thread (Count)
system.cpus0.issuedInstType_0::IntAlu         9533350     39.55%     39.78% # Number of instructions issued per FU type, per thread (Count)
system.cpus0.issuedInstType_0::IntMult         119592      0.50%     40.28% # Number of instructions issued per FU type, per thread (Count)
system.cpus0.issuedInstType_0::IntDiv            4927      0.02%     40.30% # Number of instructions issued per FU type, per thread (Count)
system.cpus0.issuedInstType_0::FloatAdd        156403      0.65%     40.95% # Number of instructions issued per FU type, per thread (Count)
system.cpus0.issuedInstType_0::FloatCmp             0      0.00%     40.95% # Number of instructions issued per FU type, per thread (Count)
system.cpus0.issuedInstType_0::FloatCvt             0      0.00%     40.95% # Number of instructions issued per FU type, per thread (Count)
system.cpus0.issuedInstType_0::FloatMult            0      0.00%     40.95% # Number of instructions issued per FU type, per thread (Count)
system.cpus0.issuedInstType_0::FloatMultAcc            0      0.00%     40.95% # Number of instructions issued per FU type, per thread (Count)
system.cpus0.issuedInstType_0::FloatDiv             0      0.00%     40.95% # Number of instructions issued per FU type, per thread (Count)
system.cpus0.issuedInstType_0::FloatMisc            0      0.00%     40.95% # Number of instructions issued per FU type, per thread (Count)
system.cpus0.issuedInstType_0::FloatSqrt            0      0.00%     40.95% # Number of instructions issued per FU type, per thread (Count)
system.cpus0.issuedInstType_0::SimdAdd            444      0.00%     40.95% # Number of instructions issued per FU type, per thread (Count)
system.cpus0.issuedInstType_0::SimdAddAcc            0      0.00%     40.95% # Number of instructions issued per FU type, per thread (Count)
system.cpus0.issuedInstType_0::SimdAlu         143975      0.60%     41.55% # Number of instructions issued per FU type, per thread (Count)
system.cpus0.issuedInstType_0::SimdCmp             29      0.00%     41.55% # Number of instructions issued per FU type, per thread (Count)
system.cpus0.issuedInstType_0::SimdCvt           1960      0.01%     41.56% # Number of instructions issued per FU type, per thread (Count)
system.cpus0.issuedInstType_0::SimdMisc         79389      0.33%     41.88% # Number of instructions issued per FU type, per thread (Count)
system.cpus0.issuedInstType_0::SimdMult             0      0.00%     41.88% # Number of instructions issued per FU type, per thread (Count)
system.cpus0.issuedInstType_0::SimdMultAcc            0      0.00%     41.88% # Number of instructions issued per FU type, per thread (Count)
system.cpus0.issuedInstType_0::SimdMatMultAcc            0      0.00%     41.88% # Number of instructions issued per FU type, per thread (Count)
system.cpus0.issuedInstType_0::SimdShift         1189      0.00%     41.89% # Number of instructions issued per FU type, per thread (Count)
system.cpus0.issuedInstType_0::SimdShiftAcc            0      0.00%     41.89% # Number of instructions issued per FU type, per thread (Count)
system.cpus0.issuedInstType_0::SimdDiv              0      0.00%     41.89% # Number of instructions issued per FU type, per thread (Count)
system.cpus0.issuedInstType_0::SimdSqrt             0      0.00%     41.89% # Number of instructions issued per FU type, per thread (Count)
system.cpus0.issuedInstType_0::SimdFloatAdd      4410124     18.30%     60.19% # Number of instructions issued per FU type, per thread (Count)
system.cpus0.issuedInstType_0::SimdFloatAlu            0      0.00%     60.19% # Number of instructions issued per FU type, per thread (Count)
system.cpus0.issuedInstType_0::SimdFloatCmp        71027      0.29%     60.48% # Number of instructions issued per FU type, per thread (Count)
system.cpus0.issuedInstType_0::SimdFloatCvt       108826      0.45%     60.93% # Number of instructions issued per FU type, per thread (Count)
system.cpus0.issuedInstType_0::SimdFloatDiv           16      0.00%     60.93% # Number of instructions issued per FU type, per thread (Count)
system.cpus0.issuedInstType_0::SimdFloatMisc            0      0.00%     60.93% # Number of instructions issued per FU type, per thread (Count)
system.cpus0.issuedInstType_0::SimdFloatMult      1162594      4.82%     65.75% # Number of instructions issued per FU type, per thread (Count)
system.cpus0.issuedInstType_0::SimdFloatMultAcc            0      0.00%     65.75% # Number of instructions issued per FU type, per thread (Count)
system.cpus0.issuedInstType_0::SimdFloatMatMultAcc            0      0.00%     65.75% # Number of instructions issued per FU type, per thread (Count)
system.cpus0.issuedInstType_0::SimdFloatSqrt            4      0.00%     65.75% # Number of instructions issued per FU type, per thread (Count)
system.cpus0.issuedInstType_0::SimdReduceAdd            0      0.00%     65.75% # Number of instructions issued per FU type, per thread (Count)
system.cpus0.issuedInstType_0::SimdReduceAlu            0      0.00%     65.75% # Number of instructions issued per FU type, per thread (Count)
system.cpus0.issuedInstType_0::SimdReduceCmp            0      0.00%     65.75% # Number of instructions issued per FU type, per thread (Count)
system.cpus0.issuedInstType_0::SimdFloatReduceAdd            0      0.00%     65.75% # Number of instructions issued per FU type, per thread (Count)
system.cpus0.issuedInstType_0::SimdFloatReduceCmp            0      0.00%     65.75% # Number of instructions issued per FU type, per thread (Count)
system.cpus0.issuedInstType_0::SimdAes              0      0.00%     65.75% # Number of instructions issued per FU type, per thread (Count)
system.cpus0.issuedInstType_0::SimdAesMix            0      0.00%     65.75% # Number of instructions issued per FU type, per thread (Count)
system.cpus0.issuedInstType_0::SimdSha1Hash            0      0.00%     65.75% # Number of instructions issued per FU type, per thread (Count)
system.cpus0.issuedInstType_0::SimdSha1Hash2            0      0.00%     65.75% # Number of instructions issued per FU type, per thread (Count)
system.cpus0.issuedInstType_0::SimdSha256Hash            0      0.00%     65.75% # Number of instructions issued per FU type, per thread (Count)
system.cpus0.issuedInstType_0::SimdSha256Hash2            0      0.00%     65.75% # Number of instructions issued per FU type, per thread (Count)
system.cpus0.issuedInstType_0::SimdShaSigma2            0      0.00%     65.75% # Number of instructions issued per FU type, per thread (Count)
system.cpus0.issuedInstType_0::SimdShaSigma3            0      0.00%     65.75% # Number of instructions issued per FU type, per thread (Count)
system.cpus0.issuedInstType_0::SimdSha3             0      0.00%     65.75% # Number of instructions issued per FU type, per thread (Count)
system.cpus0.issuedInstType_0::SimdSm4e             0      0.00%     65.75% # Number of instructions issued per FU type, per thread (Count)
system.cpus0.issuedInstType_0::SimdCrc              0      0.00%     65.75% # Number of instructions issued per FU type, per thread (Count)
system.cpus0.issuedInstType_0::SimdPredAlu            0      0.00%     65.75% # Number of instructions issued per FU type, per thread (Count)
system.cpus0.issuedInstType_0::SimdDotProd            0      0.00%     65.75% # Number of instructions issued per FU type, per thread (Count)
system.cpus0.issuedInstType_0::Matrix               0      0.00%     65.75% # Number of instructions issued per FU type, per thread (Count)
system.cpus0.issuedInstType_0::MatrixMov            0      0.00%     65.75% # Number of instructions issued per FU type, per thread (Count)
system.cpus0.issuedInstType_0::MatrixOP             0      0.00%     65.75% # Number of instructions issued per FU type, per thread (Count)
system.cpus0.issuedInstType_0::MemRead         842142      3.49%     69.25% # Number of instructions issued per FU type, per thread (Count)
system.cpus0.issuedInstType_0::MemWrite        283492      1.18%     70.42% # Number of instructions issued per FU type, per thread (Count)
system.cpus0.issuedInstType_0::FloatMemRead      5611188     23.28%     93.70% # Number of instructions issued per FU type, per thread (Count)
system.cpus0.issuedInstType_0::FloatMemWrite      1517723      6.30%    100.00% # Number of instructions issued per FU type, per thread (Count)
system.cpus0.issuedInstType_0::InstPrefetch            0      0.00%    100.00% # Number of instructions issued per FU type, per thread (Count)
system.cpus0.issuedInstType_0::SimdUnitStrideLoad            0      0.00%    100.00% # Number of instructions issued per FU type, per thread (Count)
system.cpus0.issuedInstType_0::SimdUnitStrideStore            0      0.00%    100.00% # Number of instructions issued per FU type, per thread (Count)
system.cpus0.issuedInstType_0::SimdUnitStrideMaskLoad            0      0.00%    100.00% # Number of instructions issued per FU type, per thread (Count)
system.cpus0.issuedInstType_0::SimdUnitStrideMaskStore            0      0.00%    100.00% # Number of instructions issued per FU type, per thread (Count)
system.cpus0.issuedInstType_0::SimdStridedLoad            0      0.00%    100.00% # Number of instructions issued per FU type, per thread (Count)
system.cpus0.issuedInstType_0::SimdStridedStore            0      0.00%    100.00% # Number of instructions issued per FU type, per thread (Count)
system.cpus0.issuedInstType_0::SimdIndexedLoad            0      0.00%    100.00% # Number of instructions issued per FU type, per thread (Count)
system.cpus0.issuedInstType_0::SimdIndexedStore            0      0.00%    100.00% # Number of instructions issued per FU type, per thread (Count)
system.cpus0.issuedInstType_0::SimdWholeRegisterLoad            0      0.00%    100.00% # Number of instructions issued per FU type, per thread (Count)
system.cpus0.issuedInstType_0::SimdWholeRegisterStore            0      0.00%    100.00% # Number of instructions issued per FU type, per thread (Count)
system.cpus0.issuedInstType_0::SimdUnitStrideFaultOnlyFirstLoad            0      0.00%    100.00% # Number of instructions issued per FU type, per thread (Count)
system.cpus0.issuedInstType_0::SimdUnitStrideSegmentedLoad            0      0.00%    100.00% # Number of instructions issued per FU type, per thread (Count)
system.cpus0.issuedInstType_0::SimdUnitStrideSegmentedStore            0      0.00%    100.00% # Number of instructions issued per FU type, per thread (Count)
system.cpus0.issuedInstType_0::SimdUnitStrideSegmentedFaultOnlyFirstLoad            0      0.00%    100.00% # Number of instructions issued per FU type, per thread (Count)
system.cpus0.issuedInstType_0::SimdStrideSegmentedLoad            0      0.00%    100.00% # Number of instructions issued per FU type, per thread (Count)
system.cpus0.issuedInstType_0::SimdStrideSegmentedStore            0      0.00%    100.00% # Number of instructions issued per FU type, per thread (Count)
system.cpus0.issuedInstType_0::SimdExt              0      0.00%    100.00% # Number of instructions issued per FU type, per thread (Count)
system.cpus0.issuedInstType_0::SimdFloatExt            0      0.00%    100.00% # Number of instructions issued per FU type, per thread (Count)
system.cpus0.issuedInstType_0::SimdConfig            0      0.00%    100.00% # Number of instructions issued per FU type, per thread (Count)
system.cpus0.issuedInstType_0::SimdBf16Add            0      0.00%    100.00% # Number of instructions issued per FU type, per thread (Count)
system.cpus0.issuedInstType_0::SimdBf16Cmp            0      0.00%    100.00% # Number of instructions issued per FU type, per thread (Count)
system.cpus0.issuedInstType_0::SimdBf16Cvt            0      0.00%    100.00% # Number of instructions issued per FU type, per thread (Count)
system.cpus0.issuedInstType_0::SimdBf16DotProd            0      0.00%    100.00% # Number of instructions issued per FU type, per thread (Count)
system.cpus0.issuedInstType_0::SimdBf16MatMultAcc            0      0.00%    100.00% # Number of instructions issued per FU type, per thread (Count)
system.cpus0.issuedInstType_0::SimdBf16Mult            0      0.00%    100.00% # Number of instructions issued per FU type, per thread (Count)
system.cpus0.issuedInstType_0::SimdBf16MultAcc            0      0.00%    100.00% # Number of instructions issued per FU type, per thread (Count)
system.cpus0.issuedInstType_0::Bf16Cvt              0      0.00%    100.00% # Number of instructions issued per FU type, per thread (Count)
system.cpus0.issuedInstType_0::System               0      0.00%    100.00% # Number of instructions issued per FU type, per thread (Count)
system.cpus0.issuedInstType_0::total         24104241                       # Number of instructions issued per FU type, per thread (Count)
system.cpus0.issueRate                       2.866697                       # Inst issue rate ((Count/Cycle))
system.cpus0.fuBusy                           1221550                       # FU busy when requested (Count)
system.cpus0.fuBusyRate                      0.050678                       # FU busy rate (busy events/executed inst) ((Count/Count))
system.cpus0.intInstQueueReads               28087030                       # Number of integer instruction queue reads (Count)
system.cpus0.intInstQueueWrites              10555477                       # Number of integer instruction queue writes (Count)
system.cpus0.intInstQueueWakeupAccesses       9873024                       # Number of integer instruction queue wakeup accesses (Count)
system.cpus0.fpInstQueueReads                29412239                       # Number of floating instruction queue reads (Count)
system.cpus0.fpInstQueueWrites               15007643                       # Number of floating instruction queue writes (Count)
system.cpus0.fpInstQueueWakeupAccesses       13960345                       # Number of floating instruction queue wakeup accesses (Count)
system.cpus0.vecInstQueueReads                      0                       # Number of vector instruction queue reads (Count)
system.cpus0.vecInstQueueWrites                     0                       # Number of vector instruction queue writes (Count)
system.cpus0.vecInstQueueWakeupAccesses             0                       # Number of vector instruction queue wakeup accesses (Count)
system.cpus0.intAluAccesses                  10032465                       # Number of integer alu accesses (Count)
system.cpus0.fpAluAccesses                   15237479                       # Number of floating point alu accesses (Count)
system.cpus0.vecAluAccesses                         0                       # Number of vector alu accesses (Count)
system.cpus0.numRecvResp                      8095073                       # Number of received responses (Count)
system.cpus0.numRecvRespBytes                62924500                       # Number of received response bytes (Byte)
system.cpus0.recvRespAvgBW                       7.48                       # Average bandwidth of received responses ((Byte/Cycle))
system.cpus0.recvRespAvgSize                     7.77                       # Average packet size per received response ((Byte/Count))
system.cpus0.recvRespAvgRate                     0.96                       # Average rate of received responses per cycle ((Count/Cycle))
system.cpus0.recvRespAvgRetryRate                0.00                       # Average retry rate per received response ((Count/Count))
system.cpus0.numSendRetryResp                       0                       # Number of retry responses sent (Count)
system.cpus0.numSquashedInsts                  138244                       # Number of squashed instructions skipped in execute (Count)
system.cpus0.numSwp                                 0                       # Number of swp insts executed (Count)
system.cpus0.timesIdled                          1829                       # Number of times that the entire CPU went into an idle state and unscheduled itself (Count)
system.cpus0.idleCycles                        364134                       # Total number of cycles that the CPU has spent unscheduled due to idling (Cycle)
system.cpus0.MemDepUnit__0.insertedLoads      6474168                       # Number of loads inserted to the mem dependence unit. (Count)
system.cpus0.MemDepUnit__0.insertedStores      1843850                       # Number of stores inserted to the mem dependence unit. (Count)
system.cpus0.MemDepUnit__0.conflictingLoads       209781                       # Number of conflicting loads. (Count)
system.cpus0.MemDepUnit__0.conflictingStores       144799                       # Number of conflicting stores. (Count)
system.cpus0.MemDepUnit__1.insertedLoads            0                       # Number of loads inserted to the mem dependence unit. (Count)
system.cpus0.MemDepUnit__1.insertedStores            0                       # Number of stores inserted to the mem dependence unit. (Count)
system.cpus0.MemDepUnit__1.conflictingLoads            0                       # Number of conflicting loads. (Count)
system.cpus0.MemDepUnit__1.conflictingStores            0                       # Number of conflicting stores. (Count)
system.cpus0.MemDepUnit__2.insertedLoads            0                       # Number of loads inserted to the mem dependence unit. (Count)
system.cpus0.MemDepUnit__2.insertedStores            0                       # Number of stores inserted to the mem dependence unit. (Count)
system.cpus0.MemDepUnit__2.conflictingLoads            0                       # Number of conflicting loads. (Count)
system.cpus0.MemDepUnit__2.conflictingStores            0                       # Number of conflicting stores. (Count)
system.cpus0.MemDepUnit__3.insertedLoads            0                       # Number of loads inserted to the mem dependence unit. (Count)
system.cpus0.MemDepUnit__3.insertedStores            0                       # Number of stores inserted to the mem dependence unit. (Count)
system.cpus0.MemDepUnit__3.conflictingLoads            0                       # Number of conflicting loads. (Count)
system.cpus0.MemDepUnit__3.conflictingStores            0                       # Number of conflicting stores. (Count)
system.cpus0.bac.fetchTargets                       0                       # Number of fetch targets created  (Count)
system.cpus0.bac.branches                     1336728                       # Number of branches that BAC encountered (Count)
system.cpus0.bac.predTakenBranches             868925                       # Number of branches that BAC predicted taken. (Count)
system.cpus0.bac.branchesNotLastuOp                 0                       # Number of branches that fetch encountered which are not the last uOp within a macrooperation. Jump to itself. (Count)
system.cpus0.bac.branchMisspredict              33373                       # Number of mispredicted branches (Count)
system.cpus0.bac.noBranchMisspredict             1445                       # Number of non-branch instructions mispredicted (Count)
system.cpus0.bac.squashBranchDecode              1946                       # Number of branches squashed from decode (Count)
system.cpus0.bac.squashBranchCommit             31427                       # Number of branches squashed from commit (Count)
system.cpus0.bac.preDecUpdate::NoBranch             0                       # Number of branches extracted from the predecoder (Count)
system.cpus0.bac.preDecUpdate::Return               0                       # Number of branches extracted from the predecoder (Count)
system.cpus0.bac.preDecUpdate::CallDirect            0                       # Number of branches extracted from the predecoder (Count)
system.cpus0.bac.preDecUpdate::CallIndirect            0                       # Number of branches extracted from the predecoder (Count)
system.cpus0.bac.preDecUpdate::DirectCond            0                       # Number of branches extracted from the predecoder (Count)
system.cpus0.bac.preDecUpdate::DirectUncond            0                       # Number of branches extracted from the predecoder (Count)
system.cpus0.bac.preDecUpdate::IndirectCond            0                       # Number of branches extracted from the predecoder (Count)
system.cpus0.bac.preDecUpdate::IndirectUncond            0                       # Number of branches extracted from the predecoder (Count)
system.cpus0.bac.preDecUpdate::total                0                       # Number of branches extracted from the predecoder (Count)
system.cpus0.bac.noHistByType::NoBranch             0                       # Number and type of branches that were undetected by the BPU. (Count)
system.cpus0.bac.noHistByType::Return               0                       # Number and type of branches that were undetected by the BPU. (Count)
system.cpus0.bac.noHistByType::CallDirect            0                       # Number and type of branches that were undetected by the BPU. (Count)
system.cpus0.bac.noHistByType::CallIndirect            0                       # Number and type of branches that were undetected by the BPU. (Count)
system.cpus0.bac.noHistByType::DirectCond            0                       # Number and type of branches that were undetected by the BPU. (Count)
system.cpus0.bac.noHistByType::DirectUncond            0                       # Number and type of branches that were undetected by the BPU. (Count)
system.cpus0.bac.noHistByType::IndirectCond            0                       # Number and type of branches that were undetected by the BPU. (Count)
system.cpus0.bac.noHistByType::IndirectUncond            0                       # Number and type of branches that were undetected by the BPU. (Count)
system.cpus0.bac.noHistByType::total                0                       # Number and type of branches that were undetected by the BPU. (Count)
system.cpus0.bac.typeMissmatch                      0                       # Number branches where the branch type miss match (Count)
system.cpus0.bac.multiBranchInst                    0                       # Number branches because its not the last branch. (Count)
system.cpus0.bac.ftSizeDist::samples                0                       # Number of bytes per fetch target (Count)
system.cpus0.bac.ftSizeDist::mean                 nan                       # Number of bytes per fetch target (Count)
system.cpus0.bac.ftSizeDist::stdev                nan                       # Number of bytes per fetch target (Count)
system.cpus0.bac.ftSizeDist::underflows             0                       # Number of bytes per fetch target (Count)
system.cpus0.bac.ftSizeDist::0-3                    0                       # Number of bytes per fetch target (Count)
system.cpus0.bac.ftSizeDist::4-7                    0                       # Number of bytes per fetch target (Count)
system.cpus0.bac.ftSizeDist::8-11                   0                       # Number of bytes per fetch target (Count)
system.cpus0.bac.ftSizeDist::12-15                  0                       # Number of bytes per fetch target (Count)
system.cpus0.bac.ftSizeDist::16-19                  0                       # Number of bytes per fetch target (Count)
system.cpus0.bac.ftSizeDist::20-23                  0                       # Number of bytes per fetch target (Count)
system.cpus0.bac.ftSizeDist::24-27                  0                       # Number of bytes per fetch target (Count)
system.cpus0.bac.ftSizeDist::28-31                  0                       # Number of bytes per fetch target (Count)
system.cpus0.bac.ftSizeDist::32                     0                       # Number of bytes per fetch target (Count)
system.cpus0.bac.ftSizeDist::overflows              0                       # Number of bytes per fetch target (Count)
system.cpus0.bac.ftSizeDist::min_value              0                       # Number of bytes per fetch target (Count)
system.cpus0.bac.ftSizeDist::max_value              0                       # Number of bytes per fetch target (Count)
system.cpus0.bac.ftSizeDist::total                  0                       # Number of bytes per fetch target (Count)
system.cpus0.bac.ftNumber::samples                  0                       # Number of fetch target inserted to the FTQ per cycle (Count)
system.cpus0.bac.ftNumber::mean                   nan                       # Number of fetch target inserted to the FTQ per cycle (Count)
system.cpus0.bac.ftNumber::stdev                  nan                       # Number of fetch target inserted to the FTQ per cycle (Count)
system.cpus0.bac.ftNumber::underflows               0                       # Number of fetch target inserted to the FTQ per cycle (Count)
system.cpus0.bac.ftNumber::0                        0                       # Number of fetch target inserted to the FTQ per cycle (Count)
system.cpus0.bac.ftNumber::1                        0                       # Number of fetch target inserted to the FTQ per cycle (Count)
system.cpus0.bac.ftNumber::2                        0                       # Number of fetch target inserted to the FTQ per cycle (Count)
system.cpus0.bac.ftNumber::3                        0                       # Number of fetch target inserted to the FTQ per cycle (Count)
system.cpus0.bac.ftNumber::4                        0                       # Number of fetch target inserted to the FTQ per cycle (Count)
system.cpus0.bac.ftNumber::overflows                0                       # Number of fetch target inserted to the FTQ per cycle (Count)
system.cpus0.bac.ftNumber::min_value                0                       # Number of fetch target inserted to the FTQ per cycle (Count)
system.cpus0.bac.ftNumber::max_value                0                       # Number of fetch target inserted to the FTQ per cycle (Count)
system.cpus0.bac.ftNumber::total                    0                       # Number of fetch target inserted to the FTQ per cycle (Count)
system.cpus0.branchPred.lookups_0::NoBranch          589      0.04%      0.04% # Number of BP lookups (Count)
system.cpus0.branchPred.lookups_0::Return        28273      2.12%      2.16% # Number of BP lookups (Count)
system.cpus0.branchPred.lookups_0::CallDirect        27961      2.09%      4.25% # Number of BP lookups (Count)
system.cpus0.branchPred.lookups_0::CallIndirect          925      0.07%      4.32% # Number of BP lookups (Count)
system.cpus0.branchPred.lookups_0::DirectCond      1226548     91.76%     96.08% # Number of BP lookups (Count)
system.cpus0.branchPred.lookups_0::DirectUncond        35645      2.67%     98.74% # Number of BP lookups (Count)
system.cpus0.branchPred.lookups_0::IndirectCond            0      0.00%     98.74% # Number of BP lookups (Count)
system.cpus0.branchPred.lookups_0::IndirectUncond        16787      1.26%    100.00% # Number of BP lookups (Count)
system.cpus0.branchPred.lookups_0::total      1336728                       # Number of BP lookups (Count)
system.cpus0.branchPred.squashes_0::NoBranch          569      0.46%      0.46% # Number of branches that got squashed (completely removed) as an earlier branch was mispredicted. (Count)
system.cpus0.branchPred.squashes_0::Return         6101      4.92%      5.38% # Number of branches that got squashed (completely removed) as an earlier branch was mispredicted. (Count)
system.cpus0.branchPred.squashes_0::CallDirect         6136      4.95%     10.34% # Number of branches that got squashed (completely removed) as an earlier branch was mispredicted. (Count)
system.cpus0.branchPred.squashes_0::CallIndirect          573      0.46%     10.80% # Number of branches that got squashed (completely removed) as an earlier branch was mispredicted. (Count)
system.cpus0.branchPred.squashes_0::DirectCond        99727     80.49%     91.29% # Number of branches that got squashed (completely removed) as an earlier branch was mispredicted. (Count)
system.cpus0.branchPred.squashes_0::DirectUncond         4955      4.00%     95.29% # Number of branches that got squashed (completely removed) as an earlier branch was mispredicted. (Count)
system.cpus0.branchPred.squashes_0::IndirectCond            0      0.00%     95.29% # Number of branches that got squashed (completely removed) as an earlier branch was mispredicted. (Count)
system.cpus0.branchPred.squashes_0::IndirectUncond         5835      4.71%    100.00% # Number of branches that got squashed (completely removed) as an earlier branch was mispredicted. (Count)
system.cpus0.branchPred.squashes_0::total       123896                       # Number of branches that got squashed (completely removed) as an earlier branch was mispredicted. (Count)
system.cpus0.branchPred.corrected_0::NoBranch           70      0.21%      0.21% # Number of branches that got corrected but not yet commited. Branches get corrected by decode or after execute. Also a branch misprediction can be detected out-of-order. Therefore, a corrected branch might not end up beeing committed in case an even earlier branch was mispredicted (Count)
system.cpus0.branchPred.corrected_0::Return            8      0.02%      0.23% # Number of branches that got corrected but not yet commited. Branches get corrected by decode or after execute. Also a branch misprediction can be detected out-of-order. Therefore, a corrected branch might not end up beeing committed in case an even earlier branch was mispredicted (Count)
system.cpus0.branchPred.corrected_0::CallDirect         1155      3.46%      3.69% # Number of branches that got corrected but not yet commited. Branches get corrected by decode or after execute. Also a branch misprediction can be detected out-of-order. Therefore, a corrected branch might not end up beeing committed in case an even earlier branch was mispredicted (Count)
system.cpus0.branchPred.corrected_0::CallIndirect          177      0.53%      4.22% # Number of branches that got corrected but not yet commited. Branches get corrected by decode or after execute. Also a branch misprediction can be detected out-of-order. Therefore, a corrected branch might not end up beeing committed in case an even earlier branch was mispredicted (Count)
system.cpus0.branchPred.corrected_0::DirectCond        30593     91.67%     95.89% # Number of branches that got corrected but not yet commited. Branches get corrected by decode or after execute. Also a branch misprediction can be detected out-of-order. Therefore, a corrected branch might not end up beeing committed in case an even earlier branch was mispredicted (Count)
system.cpus0.branchPred.corrected_0::DirectUncond          743      2.23%     98.12% # Number of branches that got corrected but not yet commited. Branches get corrected by decode or after execute. Also a branch misprediction can be detected out-of-order. Therefore, a corrected branch might not end up beeing committed in case an even earlier branch was mispredicted (Count)
system.cpus0.branchPred.corrected_0::IndirectCond            0      0.00%     98.12% # Number of branches that got corrected but not yet commited. Branches get corrected by decode or after execute. Also a branch misprediction can be detected out-of-order. Therefore, a corrected branch might not end up beeing committed in case an even earlier branch was mispredicted (Count)
system.cpus0.branchPred.corrected_0::IndirectUncond          627      1.88%    100.00% # Number of branches that got corrected but not yet commited. Branches get corrected by decode or after execute. Also a branch misprediction can be detected out-of-order. Therefore, a corrected branch might not end up beeing committed in case an even earlier branch was mispredicted (Count)
system.cpus0.branchPred.corrected_0::total        33373                       # Number of branches that got corrected but not yet commited. Branches get corrected by decode or after execute. Also a branch misprediction can be detected out-of-order. Therefore, a corrected branch might not end up beeing committed in case an even earlier branch was mispredicted (Count)
system.cpus0.branchPred.earlyResteers_0::NoBranch            0      0.00%      0.00% # Number of branches that got redirected after decode. (Count)
system.cpus0.branchPred.earlyResteers_0::Return            0      0.00%      0.00% # Number of branches that got redirected after decode. (Count)
system.cpus0.branchPred.earlyResteers_0::CallDirect         1155     59.35%     59.35% # Number of branches that got redirected after decode. (Count)
system.cpus0.branchPred.earlyResteers_0::CallIndirect            0      0.00%     59.35% # Number of branches that got redirected after decode. (Count)
system.cpus0.branchPred.earlyResteers_0::DirectCond           48      2.47%     61.82% # Number of branches that got redirected after decode. (Count)
system.cpus0.branchPred.earlyResteers_0::DirectUncond          743     38.18%    100.00% # Number of branches that got redirected after decode. (Count)
system.cpus0.branchPred.earlyResteers_0::IndirectCond            0      0.00%    100.00% # Number of branches that got redirected after decode. (Count)
system.cpus0.branchPred.earlyResteers_0::IndirectUncond            0      0.00%    100.00% # Number of branches that got redirected after decode. (Count)
system.cpus0.branchPred.earlyResteers_0::total         1946                       # Number of branches that got redirected after decode. (Count)
system.cpus0.branchPred.committed_0::NoBranch           20      0.00%      0.00% # Number of branches finally committed  (Count)
system.cpus0.branchPred.committed_0::Return        22172      1.83%      1.83% # Number of branches finally committed  (Count)
system.cpus0.branchPred.committed_0::CallDirect        21825      1.80%      3.63% # Number of branches finally committed  (Count)
system.cpus0.branchPred.committed_0::CallIndirect          352      0.03%      3.66% # Number of branches finally committed  (Count)
system.cpus0.branchPred.committed_0::DirectCond      1126813     92.91%     96.57% # Number of branches finally committed  (Count)
system.cpus0.branchPred.committed_0::DirectUncond        30688      2.53%     99.10% # Number of branches finally committed  (Count)
system.cpus0.branchPred.committed_0::IndirectCond            0      0.00%     99.10% # Number of branches finally committed  (Count)
system.cpus0.branchPred.committed_0::IndirectUncond        10952      0.90%    100.00% # Number of branches finally committed  (Count)
system.cpus0.branchPred.committed_0::total      1212822                       # Number of branches finally committed  (Count)
system.cpus0.branchPred.mispredicted_0::NoBranch           20      0.06%      0.06% # Number of committed branches that were mispredicted. (Count)
system.cpus0.branchPred.mispredicted_0::Return            0      0.00%      0.06% # Number of committed branches that were mispredicted. (Count)
system.cpus0.branchPred.mispredicted_0::CallDirect          696      2.19%      2.25% # Number of committed branches that were mispredicted. (Count)
system.cpus0.branchPred.mispredicted_0::CallIndirect           94      0.30%      2.55% # Number of committed branches that were mispredicted. (Count)
system.cpus0.branchPred.mispredicted_0::DirectCond        29981     94.32%     96.87% # Number of committed branches that were mispredicted. (Count)
system.cpus0.branchPred.mispredicted_0::DirectUncond          449      1.41%     98.28% # Number of committed branches that were mispredicted. (Count)
system.cpus0.branchPred.mispredicted_0::IndirectCond            0      0.00%     98.28% # Number of committed branches that were mispredicted. (Count)
system.cpus0.branchPred.mispredicted_0::IndirectUncond          547      1.72%    100.00% # Number of committed branches that were mispredicted. (Count)
system.cpus0.branchPred.mispredicted_0::total        31787                       # Number of committed branches that were mispredicted. (Count)
system.cpus0.branchPred.mispredictDueToPredictor_0::NoBranch           20      0.07%      0.07% # Number of committed branches that were mispredicted by the predictor. (Count)
system.cpus0.branchPred.mispredictDueToPredictor_0::Return            0      0.00%      0.07% # Number of committed branches that were mispredicted by the predictor. (Count)
system.cpus0.branchPred.mispredictDueToPredictor_0::CallDirect            0      0.00%      0.07% # Number of committed branches that were mispredicted by the predictor. (Count)
system.cpus0.branchPred.mispredictDueToPredictor_0::CallIndirect            0      0.00%      0.07% # Number of committed branches that were mispredicted by the predictor. (Count)
system.cpus0.branchPred.mispredictDueToPredictor_0::DirectCond        28351     99.93%    100.00% # Number of committed branches that were mispredicted by the predictor. (Count)
system.cpus0.branchPred.mispredictDueToPredictor_0::DirectUncond            0      0.00%    100.00% # Number of committed branches that were mispredicted by the predictor. (Count)
system.cpus0.branchPred.mispredictDueToPredictor_0::IndirectCond            0      0.00%    100.00% # Number of committed branches that were mispredicted by the predictor. (Count)
system.cpus0.branchPred.mispredictDueToPredictor_0::IndirectUncond            0      0.00%    100.00% # Number of committed branches that were mispredicted by the predictor. (Count)
system.cpus0.branchPred.mispredictDueToPredictor_0::total        28371                       # Number of committed branches that were mispredicted by the predictor. (Count)
system.cpus0.branchPred.mispredictDueToBTBMiss_0::NoBranch            0      0.00%      0.00% # Number of committed branches that were mispredicted because of a BTB miss. (Count)
system.cpus0.branchPred.mispredictDueToBTBMiss_0::Return            0      0.00%      0.00% # Number of committed branches that were mispredicted because of a BTB miss. (Count)
system.cpus0.branchPred.mispredictDueToBTBMiss_0::CallDirect          696     20.37%     20.37% # Number of committed branches that were mispredicted because of a BTB miss. (Count)
system.cpus0.branchPred.mispredictDueToBTBMiss_0::CallIndirect           94      2.75%     23.13% # Number of committed branches that were mispredicted because of a BTB miss. (Count)
system.cpus0.branchPred.mispredictDueToBTBMiss_0::DirectCond         1630     47.72%     70.84% # Number of committed branches that were mispredicted because of a BTB miss. (Count)
system.cpus0.branchPred.mispredictDueToBTBMiss_0::DirectUncond          449     13.14%     83.99% # Number of committed branches that were mispredicted because of a BTB miss. (Count)
system.cpus0.branchPred.mispredictDueToBTBMiss_0::IndirectCond            0      0.00%     83.99% # Number of committed branches that were mispredicted because of a BTB miss. (Count)
system.cpus0.branchPred.mispredictDueToBTBMiss_0::IndirectUncond          547     16.01%    100.00% # Number of committed branches that were mispredicted because of a BTB miss. (Count)
system.cpus0.branchPred.mispredictDueToBTBMiss_0::total         3416                       # Number of committed branches that were mispredicted because of a BTB miss. (Count)
system.cpus0.branchPred.targetProvider_0::NoTarget       467803     35.00%     35.00% # The component providing the target for taken branches (Count)
system.cpus0.branchPred.targetProvider_0::BTB       828784     62.00%     97.00% # The component providing the target for taken branches (Count)
system.cpus0.branchPred.targetProvider_0::RAS        28273      2.12%     99.11% # The component providing the target for taken branches (Count)
system.cpus0.branchPred.targetProvider_0::Indirect        11868      0.89%    100.00% # The component providing the target for taken branches (Count)
system.cpus0.branchPred.targetProvider_0::total      1336728                       # The component providing the target for taken branches (Count)
system.cpus0.branchPred.targetWrong_0::NoBranch         8963     27.13%     27.13% # Number of branches where the target was incorrect or not available at prediction time. (Count)
system.cpus0.branchPred.targetWrong_0::Return        23905     72.35%     99.47% # Number of branches where the target was incorrect or not available at prediction time. (Count)
system.cpus0.branchPred.targetWrong_0::CallDirect            8      0.02%     99.49% # Number of branches where the target was incorrect or not available at prediction time. (Count)
system.cpus0.branchPred.targetWrong_0::CallIndirect          167      0.51%    100.00% # Number of branches where the target was incorrect or not available at prediction time. (Count)
system.cpus0.branchPred.targetWrong_0::DirectCond            0      0.00%    100.00% # Number of branches where the target was incorrect or not available at prediction time. (Count)
system.cpus0.branchPred.targetWrong_0::DirectUncond            0      0.00%    100.00% # Number of branches where the target was incorrect or not available at prediction time. (Count)
system.cpus0.branchPred.targetWrong_0::IndirectCond            0      0.00%    100.00% # Number of branches where the target was incorrect or not available at prediction time. (Count)
system.cpus0.branchPred.targetWrong_0::IndirectUncond            0      0.00%    100.00% # Number of branches where the target was incorrect or not available at prediction time. (Count)
system.cpus0.branchPred.targetWrong_0::total        33043                       # Number of branches where the target was incorrect or not available at prediction time. (Count)
system.cpus0.branchPred.condPredicted         1226548                       # Number of conditional branches predicted (Count)
system.cpus0.branchPred.condPredictedTaken       771609                       # Number of conditional branches predicted as taken (Count)
system.cpus0.branchPred.condIncorrect           31787                       # Number of conditional branches incorrect (Count)
system.cpus0.branchPred.predTakenBTBMiss         2736                       # Number of branches predicted taken but missed in BTB (Count)
system.cpus0.branchPred.BTBLookups            1336728                       # Number of BTB lookups (Count)
system.cpus0.branchPred.BTBUpdates               8558                       # Number of BTB updates (Count)
system.cpus0.branchPred.BTBHits                980086                       # Number of BTB hits (Count)
system.cpus0.branchPred.BTBHitRatio          0.733198                       # BTB Hit Ratio (Ratio)
system.cpus0.branchPred.BTBMispredicted          3725                       # Number BTB mispredictions. No target found or target wrong (Count)
system.cpus0.branchPred.indirectLookups         17712                       # Number of indirect predictor lookups. (Count)
system.cpus0.branchPred.indirectHits            11868                       # Number of indirect target hits. (Count)
system.cpus0.branchPred.indirectMisses           5844                       # Number of indirect misses. (Count)
system.cpus0.branchPred.indirectMispredicted            0                       # Number of mispredicted indirect branches. (Count)
system.cpus0.branchPred.btb.lookups::NoBranch          589      0.04%      0.04% # Number of BTB lookups (Count)
system.cpus0.branchPred.btb.lookups::Return        28273      2.12%      2.16% # Number of BTB lookups (Count)
system.cpus0.branchPred.btb.lookups::CallDirect        27961      2.09%      4.25% # Number of BTB lookups (Count)
system.cpus0.branchPred.btb.lookups::CallIndirect          925      0.07%      4.32% # Number of BTB lookups (Count)
system.cpus0.branchPred.btb.lookups::DirectCond      1226548     91.76%     96.08% # Number of BTB lookups (Count)
system.cpus0.branchPred.btb.lookups::DirectUncond        35645      2.67%     98.74% # Number of BTB lookups (Count)
system.cpus0.branchPred.btb.lookups::IndirectCond            0      0.00%     98.74% # Number of BTB lookups (Count)
system.cpus0.branchPred.btb.lookups::IndirectUncond        16787      1.26%    100.00% # Number of BTB lookups (Count)
system.cpus0.branchPred.btb.lookups::total      1336728                       # Number of BTB lookups (Count)
system.cpus0.branchPred.btb.misses::NoBranch          102      0.03%      0.03% # Number of BTB misses (Count)
system.cpus0.branchPred.btb.misses::Return        28273      7.93%      7.96% # Number of BTB misses (Count)
system.cpus0.branchPred.btb.misses::CallDirect         1723      0.48%      8.44% # Number of BTB misses (Count)
system.cpus0.branchPred.btb.misses::CallIndirect          925      0.26%      8.70% # Number of BTB misses (Count)
system.cpus0.branchPred.btb.misses::DirectCond       307748     86.29%     94.99% # Number of BTB misses (Count)
system.cpus0.branchPred.btb.misses::DirectUncond         1084      0.30%     95.29% # Number of BTB misses (Count)
system.cpus0.branchPred.btb.misses::IndirectCond            0      0.00%     95.29% # Number of BTB misses (Count)
system.cpus0.branchPred.btb.misses::IndirectUncond        16787      4.71%    100.00% # Number of BTB misses (Count)
system.cpus0.branchPred.btb.misses::total       356642                       # Number of BTB misses (Count)
system.cpus0.branchPred.btb.updates::NoBranch           70      0.82%      0.82% # Number of BTB updates (Count)
system.cpus0.branchPred.btb.updates::Return            0      0.00%      0.82% # Number of BTB updates (Count)
system.cpus0.branchPred.btb.updates::CallDirect         1155     13.50%     14.31% # Number of BTB updates (Count)
system.cpus0.branchPred.btb.updates::CallIndirect            0      0.00%     14.31% # Number of BTB updates (Count)
system.cpus0.branchPred.btb.updates::DirectCond         6590     77.00%     91.32% # Number of BTB updates (Count)
system.cpus0.branchPred.btb.updates::DirectUncond          743      8.68%    100.00% # Number of BTB updates (Count)
system.cpus0.branchPred.btb.updates::IndirectCond            0      0.00%    100.00% # Number of BTB updates (Count)
system.cpus0.branchPred.btb.updates::IndirectUncond            0      0.00%    100.00% # Number of BTB updates (Count)
system.cpus0.branchPred.btb.updates::total         8558                       # Number of BTB updates (Count)
system.cpus0.branchPred.btb.mispredict::NoBranch           70      0.82%      0.82% # Number of BTB mispredictions. No target found or target wrong. (Count)
system.cpus0.branchPred.btb.mispredict::Return            0      0.00%      0.82% # Number of BTB mispredictions. No target found or target wrong. (Count)
system.cpus0.branchPred.btb.mispredict::CallDirect         1155     13.50%     14.31% # Number of BTB mispredictions. No target found or target wrong. (Count)
system.cpus0.branchPred.btb.mispredict::CallIndirect            0      0.00%     14.31% # Number of BTB mispredictions. No target found or target wrong. (Count)
system.cpus0.branchPred.btb.mispredict::DirectCond         6590     77.00%     91.32% # Number of BTB mispredictions. No target found or target wrong. (Count)
system.cpus0.branchPred.btb.mispredict::DirectUncond          743      8.68%    100.00% # Number of BTB mispredictions. No target found or target wrong. (Count)
system.cpus0.branchPred.btb.mispredict::IndirectCond            0      0.00%    100.00% # Number of BTB mispredictions. No target found or target wrong. (Count)
system.cpus0.branchPred.btb.mispredict::IndirectUncond            0      0.00%    100.00% # Number of BTB mispredictions. No target found or target wrong. (Count)
system.cpus0.branchPred.btb.mispredict::total         8558                       # Number of BTB mispredictions. No target found or target wrong. (Count)
system.cpus0.branchPred.btb.power_state.pwrStateResidencyTicks::UNDEFINED   2102091250                       # Cumulative time (in ticks) in various power states (Tick)
system.cpus0.branchPred.indirectBranchPred.lookups        17712                       # Number of lookups (Count)
system.cpus0.branchPred.indirectBranchPred.hits        11868                       # Number of hits of a tag (Count)
system.cpus0.branchPred.indirectBranchPred.misses         5844                       # Number of misses (Count)
system.cpus0.branchPred.indirectBranchPred.targetRecords          804                       # Number of targets that where recorded/installed in the cache (Count)
system.cpus0.branchPred.indirectBranchPred.indirectRecords        18516                       # Number of indirect branches/calls recorded in the indirect hist (Count)
system.cpus0.branchPred.indirectBranchPred.speculativeOverflows           11                       # Number of times more than the allowed capacity for speculative branches/calls where in flight and destroy the path history (Count)
system.cpus0.branchPred.ras.pushes              34987                       # Number of times a PC was pushed onto the RAS (Count)
system.cpus0.branchPred.ras.pops                34982                       # Number of times a PC was poped from the RAS (Count)
system.cpus0.branchPred.ras.squashes            12810                       # Number of times the stack operation was squashed due to wrong speculation. (Count)
system.cpus0.branchPred.ras.used                22172                       # Number of times the RAS is the provider (Count)
system.cpus0.branchPred.ras.correct             22172                       # Number of times the RAS is the provider and the prediction is correct (Count)
system.cpus0.branchPred.ras.incorrect               0                       # Number of times the RAS is the provider and the prediction is wrong (Count)
system.cpus0.clk_domain.clock                     250                       # Clock period in ticks (Tick)
system.cpus0.clk_domain.voltage_domain.voltage            1                       # Voltage in Volts (Volt)
system.cpus0.commit.status::running           8033381     99.87%     99.87% # Number of cycles commit is running (Cycle)
system.cpus0.commit.status::idle                    1      0.00%     99.87% # Number of cycles commit is idle (Cycle)
system.cpus0.commit.status::trapPending         10850      0.13%    100.00% # Number of cycles commit is processing a trap (Cycle)
system.cpus0.commit.commitSquashedInsts       1060686                       # The number of squashed insts skipped by commit (Count)
system.cpus0.commit.commitNonSpecStalls          3508                       # The number of times commit has been forced to stall to communicate backwards (Count)
system.cpus0.commit.branchMispredicts           31495                       # The number of times a branch was mispredicted (Count)
system.cpus0.commit.numCommittedDist::samples      8011360                       # Number of insts commited each cycle (Count)
system.cpus0.commit.numCommittedDist::mean     2.924764                       # Number of insts commited each cycle (Count)
system.cpus0.commit.numCommittedDist::stdev     3.420083                       # Number of insts commited each cycle (Count)
system.cpus0.commit.numCommittedDist::underflows            0      0.00%      0.00% # Number of insts commited each cycle (Count)
system.cpus0.commit.numCommittedDist::0       3783405     47.23%     47.23% # Number of insts commited each cycle (Count)
system.cpus0.commit.numCommittedDist::1        477115      5.96%     53.18% # Number of insts commited each cycle (Count)
system.cpus0.commit.numCommittedDist::2        576182      7.19%     60.37% # Number of insts commited each cycle (Count)
system.cpus0.commit.numCommittedDist::3        239860      2.99%     63.37% # Number of insts commited each cycle (Count)
system.cpus0.commit.numCommittedDist::4        337519      4.21%     67.58% # Number of insts commited each cycle (Count)
system.cpus0.commit.numCommittedDist::5        141636      1.77%     69.35% # Number of insts commited each cycle (Count)
system.cpus0.commit.numCommittedDist::6        256809      3.21%     72.55% # Number of insts commited each cycle (Count)
system.cpus0.commit.numCommittedDist::7        107505      1.34%     73.90% # Number of insts commited each cycle (Count)
system.cpus0.commit.numCommittedDist::8       2091329     26.10%    100.00% # Number of insts commited each cycle (Count)
system.cpus0.commit.numCommittedDist::overflows            0      0.00%    100.00% # Number of insts commited each cycle (Count)
system.cpus0.commit.numCommittedDist::min_value            0                       # Number of insts commited each cycle (Count)
system.cpus0.commit.numCommittedDist::max_value            8                       # Number of insts commited each cycle (Count)
system.cpus0.commit.numCommittedDist::total      8011360                       # Number of insts commited each cycle (Count)
system.cpus0.commit.amos                            0                       # Number of atomic instructions committed (Count)
system.cpus0.commit.membars                      2316                       # Number of memory barriers committed (Count)
system.cpus0.commit.committedInstType_0::No_OpClass        51765      0.22%      0.22% # Class of committed instruction (Count)
system.cpus0.commit.committedInstType_0::IntAlu      9225037     39.37%     39.59% # Class of committed instruction (Count)
system.cpus0.commit.committedInstType_0::IntMult       118261      0.50%     40.10% # Class of committed instruction (Count)
system.cpus0.commit.committedInstType_0::IntDiv         3250      0.01%     40.11% # Class of committed instruction (Count)
system.cpus0.commit.committedInstType_0::FloatAdd       148852      0.64%     40.75% # Class of committed instruction (Count)
system.cpus0.commit.committedInstType_0::FloatCmp            0      0.00%     40.75% # Class of committed instruction (Count)
system.cpus0.commit.committedInstType_0::FloatCvt            0      0.00%     40.75% # Class of committed instruction (Count)
system.cpus0.commit.committedInstType_0::FloatMult            0      0.00%     40.75% # Class of committed instruction (Count)
system.cpus0.commit.committedInstType_0::FloatMultAcc            0      0.00%     40.75% # Class of committed instruction (Count)
system.cpus0.commit.committedInstType_0::FloatDiv            0      0.00%     40.75% # Class of committed instruction (Count)
system.cpus0.commit.committedInstType_0::FloatMisc            0      0.00%     40.75% # Class of committed instruction (Count)
system.cpus0.commit.committedInstType_0::FloatSqrt            0      0.00%     40.75% # Class of committed instruction (Count)
system.cpus0.commit.committedInstType_0::SimdAdd          306      0.00%     40.75% # Class of committed instruction (Count)
system.cpus0.commit.committedInstType_0::SimdAddAcc            0      0.00%     40.75% # Class of committed instruction (Count)
system.cpus0.commit.committedInstType_0::SimdAlu       138708      0.59%     41.34% # Class of committed instruction (Count)
system.cpus0.commit.committedInstType_0::SimdCmp           16      0.00%     41.34% # Class of committed instruction (Count)
system.cpus0.commit.committedInstType_0::SimdCvt         1440      0.01%     41.34% # Class of committed instruction (Count)
system.cpus0.commit.committedInstType_0::SimdMisc        78390      0.33%     41.68% # Class of committed instruction (Count)
system.cpus0.commit.committedInstType_0::SimdMult            0      0.00%     41.68% # Class of committed instruction (Count)
system.cpus0.commit.committedInstType_0::SimdMultAcc            0      0.00%     41.68% # Class of committed instruction (Count)
system.cpus0.commit.committedInstType_0::SimdMatMultAcc            0      0.00%     41.68% # Class of committed instruction (Count)
system.cpus0.commit.committedInstType_0::SimdShift          970      0.00%     41.68% # Class of committed instruction (Count)
system.cpus0.commit.committedInstType_0::SimdShiftAcc            0      0.00%     41.68% # Class of committed instruction (Count)
system.cpus0.commit.committedInstType_0::SimdDiv            0      0.00%     41.68% # Class of committed instruction (Count)
system.cpus0.commit.committedInstType_0::SimdSqrt            0      0.00%     41.68% # Class of committed instruction (Count)
system.cpus0.commit.committedInstType_0::SimdFloatAdd      4383093     18.71%     60.39% # Class of committed instruction (Count)
system.cpus0.commit.committedInstType_0::SimdFloatAlu            0      0.00%     60.39% # Class of committed instruction (Count)
system.cpus0.commit.committedInstType_0::SimdFloatCmp        69636      0.30%     60.69% # Class of committed instruction (Count)
system.cpus0.commit.committedInstType_0::SimdFloatCvt       105660      0.45%     61.14% # Class of committed instruction (Count)
system.cpus0.commit.committedInstType_0::SimdFloatDiv           11      0.00%     61.14% # Class of committed instruction (Count)
system.cpus0.commit.committedInstType_0::SimdFloatMisc            0      0.00%     61.14% # Class of committed instruction (Count)
system.cpus0.commit.committedInstType_0::SimdFloatMult      1153959      4.92%     66.06% # Class of committed instruction (Count)
system.cpus0.commit.committedInstType_0::SimdFloatMultAcc            0      0.00%     66.06% # Class of committed instruction (Count)
system.cpus0.commit.committedInstType_0::SimdFloatMatMultAcc            0      0.00%     66.06% # Class of committed instruction (Count)
system.cpus0.commit.committedInstType_0::SimdFloatSqrt            4      0.00%     66.06% # Class of committed instruction (Count)
system.cpus0.commit.committedInstType_0::SimdReduceAdd            0      0.00%     66.06% # Class of committed instruction (Count)
system.cpus0.commit.committedInstType_0::SimdReduceAlu            0      0.00%     66.06% # Class of committed instruction (Count)
system.cpus0.commit.committedInstType_0::SimdReduceCmp            0      0.00%     66.06% # Class of committed instruction (Count)
system.cpus0.commit.committedInstType_0::SimdFloatReduceAdd            0      0.00%     66.06% # Class of committed instruction (Count)
system.cpus0.commit.committedInstType_0::SimdFloatReduceCmp            0      0.00%     66.06% # Class of committed instruction (Count)
system.cpus0.commit.committedInstType_0::SimdAes            0      0.00%     66.06% # Class of committed instruction (Count)
system.cpus0.commit.committedInstType_0::SimdAesMix            0      0.00%     66.06% # Class of committed instruction (Count)
system.cpus0.commit.committedInstType_0::SimdSha1Hash            0      0.00%     66.06% # Class of committed instruction (Count)
system.cpus0.commit.committedInstType_0::SimdSha1Hash2            0      0.00%     66.06% # Class of committed instruction (Count)
system.cpus0.commit.committedInstType_0::SimdSha256Hash            0      0.00%     66.06% # Class of committed instruction (Count)
system.cpus0.commit.committedInstType_0::SimdSha256Hash2            0      0.00%     66.06% # Class of committed instruction (Count)
system.cpus0.commit.committedInstType_0::SimdShaSigma2            0      0.00%     66.06% # Class of committed instruction (Count)
system.cpus0.commit.committedInstType_0::SimdShaSigma3            0      0.00%     66.06% # Class of committed instruction (Count)
system.cpus0.commit.committedInstType_0::SimdSha3            0      0.00%     66.06% # Class of committed instruction (Count)
system.cpus0.commit.committedInstType_0::SimdSm4e            0      0.00%     66.06% # Class of committed instruction (Count)
system.cpus0.commit.committedInstType_0::SimdCrc            0      0.00%     66.06% # Class of committed instruction (Count)
system.cpus0.commit.committedInstType_0::SimdPredAlu            0      0.00%     66.06% # Class of committed instruction (Count)
system.cpus0.commit.committedInstType_0::SimdDotProd            0      0.00%     66.06% # Class of committed instruction (Count)
system.cpus0.commit.committedInstType_0::Matrix            0      0.00%     66.06% # Class of committed instruction (Count)
system.cpus0.commit.committedInstType_0::MatrixMov            0      0.00%     66.06% # Class of committed instruction (Count)
system.cpus0.commit.committedInstType_0::MatrixOP            0      0.00%     66.06% # Class of committed instruction (Count)
system.cpus0.commit.committedInstType_0::MemRead       791920      3.38%     69.44% # Class of committed instruction (Count)
system.cpus0.commit.committedInstType_0::MemWrite       268220      1.14%     70.59% # Class of committed instruction (Count)
system.cpus0.commit.committedInstType_0::FloatMemRead      5381956     22.97%     93.56% # Class of committed instruction (Count)
system.cpus0.commit.committedInstType_0::FloatMemWrite      1509882      6.44%    100.00% # Class of committed instruction (Count)
system.cpus0.commit.committedInstType_0::InstPrefetch            0      0.00%    100.00% # Class of committed instruction (Count)
system.cpus0.commit.committedInstType_0::SimdUnitStrideLoad            0      0.00%    100.00% # Class of committed instruction (Count)
system.cpus0.commit.committedInstType_0::SimdUnitStrideStore            0      0.00%    100.00% # Class of committed instruction (Count)
system.cpus0.commit.committedInstType_0::SimdUnitStrideMaskLoad            0      0.00%    100.00% # Class of committed instruction (Count)
system.cpus0.commit.committedInstType_0::SimdUnitStrideMaskStore            0      0.00%    100.00% # Class of committed instruction (Count)
system.cpus0.commit.committedInstType_0::SimdStridedLoad            0      0.00%    100.00% # Class of committed instruction (Count)
system.cpus0.commit.committedInstType_0::SimdStridedStore            0      0.00%    100.00% # Class of committed instruction (Count)
system.cpus0.commit.committedInstType_0::SimdIndexedLoad            0      0.00%    100.00% # Class of committed instruction (Count)
system.cpus0.commit.committedInstType_0::SimdIndexedStore            0      0.00%    100.00% # Class of committed instruction (Count)
system.cpus0.commit.committedInstType_0::SimdWholeRegisterLoad            0      0.00%    100.00% # Class of committed instruction (Count)
system.cpus0.commit.committedInstType_0::SimdWholeRegisterStore            0      0.00%    100.00% # Class of committed instruction (Count)
system.cpus0.commit.committedInstType_0::SimdUnitStrideFaultOnlyFirstLoad            0      0.00%    100.00% # Class of committed instruction (Count)
system.cpus0.commit.committedInstType_0::SimdUnitStrideSegmentedLoad            0      0.00%    100.00% # Class of committed instruction (Count)
system.cpus0.commit.committedInstType_0::SimdUnitStrideSegmentedStore            0      0.00%    100.00% # Class of committed instruction (Count)
system.cpus0.commit.committedInstType_0::SimdUnitStrideSegmentedFaultOnlyFirstLoad            0      0.00%    100.00% # Class of committed instruction (Count)
system.cpus0.commit.committedInstType_0::SimdStrideSegmentedLoad            0      0.00%    100.00% # Class of committed instruction (Count)
system.cpus0.commit.committedInstType_0::SimdStrideSegmentedStore            0      0.00%    100.00% # Class of committed instruction (Count)
system.cpus0.commit.committedInstType_0::SimdExt            0      0.00%    100.00% # Class of committed instruction (Count)
[...]
system.membus.pktCount_system.cpus01.l2cache.mem_side_port::system.mem_ctrl0.port            4                       # Packet count per connected requestor and responder (Count)
system.membus.pktCount_system.cpus01.l2cache.mem_side_port::total            4                       # Packet count per connected requestor and responder (Count)
system.membus.pktCount_system.cpus02.l2cache.mem_side_port::system.mem_ctrl0.port            4                       # Packet count per connected requestor and responder (Count)
system.membus.pktCount_system.cpus02.l2cache.mem_side_port::total            4                       # Packet count per connected requestor and responder (Count)
system.membus.pktCount_system.cpus03.l2cache.mem_side_port::system.mem_ctrl0.port            4                       # Packet count per connected requestor and responder (Count)
system.membus.pktCount_system.cpus03.l2cache.mem_side_port::total            4                       # Packet count per connected requestor and responder (Count)
system.membus.pktCount_system.cpus04.l2cache.mem_side_port::system.mem_ctrl0.port            4                       # Packet count per connected requestor and responder (Count)
system.membus.pktCount_system.cpus04.l2cache.mem_side_port::total            4                       # Packet count per connected requestor and responder (Count)
system.membus.pktCount_system.cpus05.l2cache.mem_side_port::system.mem_ctrl0.port            4                       # Packet count per connected requestor and responder (Count)
system.membus.pktCount_system.cpus05.l2cache.mem_side_port::total            4                       # Packet count per connected requestor and responder (Count)
system.membus.pktCount_system.cpus06.l2cache.mem_side_port::system.mem_ctrl0.port            4                       # Packet count per connected requestor and responder (Count)
system.membus.pktCount_system.cpus06.l2cache.mem_side_port::total            4                       # Packet count per connected requestor and responder (Count)
system.membus.pktCount_system.cpus07.l2cache.mem_side_port::system.mem_ctrl0.port            4                       # Packet count per connected requestor and responder (Count)
system.membus.pktCount_system.cpus07.l2cache.mem_side_port::total            4                       # Packet count per connected requestor and responder (Count)
system.membus.pktCount_system.cpus08.l2cache.mem_side_port::system.mem_ctrl0.port        13019                       # Packet count per connected requestor and responder (Count)
system.membus.pktCount_system.cpus08.l2cache.mem_side_port::system.mem_ctrl1.port        23368                       # Packet count per connected requestor and responder (Count)
system.membus.pktCount_system.cpus08.l2cache.mem_side_port::total        36387                       # Packet count per connected requestor and responder (Count)
system.membus.pktCount_system.cpus09.l2cache.mem_side_port::system.mem_ctrl0.port            4                       # Packet count per connected requestor and responder (Count)
system.membus.pktCount_system.cpus09.l2cache.mem_side_port::total            4                       # Packet count per connected requestor and responder (Count)
system.membus.pktCount_system.cpus10.l2cache.mem_side_port::system.mem_ctrl0.port            4                       # Packet count per connected requestor and responder (Count)
system.membus.pktCount_system.cpus10.l2cache.mem_side_port::total            4                       # Packet count per connected requestor and responder (Count)
system.membus.pktCount_system.cpus11.l2cache.mem_side_port::system.mem_ctrl0.port            4                       # Packet count per connected requestor and responder (Count)
system.membus.pktCount_system.cpus11.l2cache.mem_side_port::total            4                       # Packet count per connected requestor and responder (Count)
system.membus.pktCount_system.cpus12.l2cache.mem_side_port::system.mem_ctrl0.port            4                       # Packet count per connected requestor and responder (Count)
system.membus.pktCount_system.cpus12.l2cache.mem_side_port::total            4                       # Packet count per connected requestor and responder (Count)
system.membus.pktCount_system.cpus13.l2cache.mem_side_port::system.mem_ctrl0.port            4                       # Packet count per connected requestor and responder (Count)
system.membus.pktCount_system.cpus13.l2cache.mem_side_port::total            4                       # Packet count per connected requestor and responder (Count)
system.membus.pktCount_system.cpus14.l2cache.mem_side_port::system.mem_ctrl0.port            4                       # Packet count per connected requestor and responder (Count)
system.membus.pktCount_system.cpus14.l2cache.mem_side_port::total            4                       # Packet count per connected requestor and responder (Count)
system.membus.pktCount_system.cpus15.l2cache.mem_side_port::system.mem_ctrl0.port            4                       # Packet count per connected requestor and responder (Count)
system.membus.pktCount_system.cpus15.l2cache.mem_side_port::total            4                       # Packet count per connected requestor and responder (Count)
system.membus.pktCount::total                   83291                       # Packet count per connected requestor and responder (Count)
system.membus.pktSize_system.cpus00.l2cache.mem_side_port::system.mem_ctrl0.port       892480                       # Cumulative packet size per connected requestor and responder (Byte)
system.membus.pktSize_system.cpus00.l2cache.mem_side_port::system.mem_ctrl1.port         4736                       # Cumulative packet size per connected requestor and responder (Byte)
system.membus.pktSize_system.cpus00.l2cache.mem_side_port::total       897216                       # Cumulative packet size per connected requestor and responder (Byte)
system.membus.pktSize_system.cpus01.l2cache.mem_side_port::system.mem_ctrl0.port          128                       # Cumulative packet size per connected requestor and responder (Byte)
system.membus.pktSize_system.cpus01.l2cache.mem_side_port::total          128                       # Cumulative packet size per connected requestor and responder (Byte)
system.membus.pktSize_system.cpus02.l2cache.mem_side_port::system.mem_ctrl0.port          128                       # Cumulative packet size per connected requestor and responder (Byte)
system.membus.pktSize_system.cpus02.l2cache.mem_side_port::total          128                       # Cumulative packet size per connected requestor and responder (Byte)
system.membus.pktSize_system.cpus03.l2cache.mem_side_port::system.mem_ctrl0.port          128                       # Cumulative packet size per connected requestor and responder (Byte)
system.membus.pktSize_system.cpus03.l2cache.mem_side_port::total          128                       # Cumulative packet size per connected requestor and responder (Byte)
system.membus.pktSize_system.cpus04.l2cache.mem_side_port::system.mem_ctrl0.port          128                       # Cumulative packet size per connected requestor and responder (Byte)
system.membus.pktSize_system.cpus04.l2cache.mem_side_port::total          128                       # Cumulative packet size per connected requestor and responder (Byte)
system.membus.pktSize_system.cpus05.l2cache.mem_side_port::system.mem_ctrl0.port          128                       # Cumulative packet size per connected requestor and responder (Byte)
system.membus.pktSize_system.cpus05.l2cache.mem_side_port::total          128                       # Cumulative packet size per connected requestor and responder (Byte)
system.membus.pktSize_system.cpus06.l2cache.mem_side_port::system.mem_ctrl0.port          128                       # Cumulative packet size per connected requestor and responder (Byte)
system.membus.pktSize_system.cpus06.l2cache.mem_side_port::total          128                       # Cumulative packet size per connected requestor and responder (Byte)
system.membus.pktSize_system.cpus07.l2cache.mem_side_port::system.mem_ctrl0.port          128                       # Cumulative packet size per connected requestor and responder (Byte)
system.membus.pktSize_system.cpus07.l2cache.mem_side_port::total          128                       # Cumulative packet size per connected requestor and responder (Byte)
system.membus.pktSize_system.cpus08.l2cache.mem_side_port::system.mem_ctrl0.port        26624                       # Cumulative packet size per connected requestor and responder (Byte)
system.membus.pktSize_system.cpus08.l2cache.mem_side_port::system.mem_ctrl1.port       531008                       # Cumulative packet size per connected requestor and responder (Byte)
system.membus.pktSize_system.cpus08.l2cache.mem_side_port::total       557632                       # Cumulative packet size per connected requestor and responder (Byte)
system.membus.pktSize_system.cpus09.l2cache.mem_side_port::system.mem_ctrl0.port          128                       # Cumulative packet size per connected requestor and responder (Byte)
system.membus.pktSize_system.cpus09.l2cache.mem_side_port::total          128                       # Cumulative packet size per connected requestor and responder (Byte)
system.membus.pktSize_system.cpus10.l2cache.mem_side_port::system.mem_ctrl0.port          128                       # Cumulative packet size per connected requestor and responder (Byte)
system.membus.pktSize_system.cpus10.l2cache.mem_side_port::total          128                       # Cumulative packet size per connected requestor and responder (Byte)
system.membus.pktSize_system.cpus11.l2cache.mem_side_port::system.mem_ctrl0.port          128                       # Cumulative packet size per connected requestor and responder (Byte)
system.membus.pktSize_system.cpus11.l2cache.mem_side_port::total          128                       # Cumulative packet size per connected requestor and responder (Byte)
system.membus.pktSize_system.cpus12.l2cache.mem_side_port::system.mem_ctrl0.port          128                       # Cumulative packet size per connected requestor and responder (Byte)
system.membus.pktSize_system.cpus12.l2cache.mem_side_port::total          128                       # Cumulative packet size per connected requestor and responder (Byte)
system.membus.pktSize_system.cpus13.l2cache.mem_side_port::system.mem_ctrl0.port          128                       # Cumulative packet size per connected requestor and responder (Byte)
system.membus.pktSize_system.cpus13.l2cache.mem_side_port::total          128                       # Cumulative packet size per connected requestor and responder (Byte)
system.membus.pktSize_system.cpus14.l2cache.mem_side_port::system.mem_ctrl0.port          128                       # Cumulative packet size per connected requestor and responder (Byte)
system.membus.pktSize_system.cpus14.l2cache.mem_side_port::total          128                       # Cumulative packet size per connected requestor and responder (Byte)
system.membus.pktSize_system.cpus15.l2cache.mem_side_port::system.mem_ctrl0.port          128                       # Cumulative packet size per connected requestor and responder (Byte)
system.membus.pktSize_system.cpus15.l2cache.mem_side_port::total          128                       # Cumulative packet size per connected requestor and responder (Byte)
system.membus.pktSize::total                  1456640                       # Cumulative packet size per connected requestor and responder (Byte)
system.membus.snoops                            26056                       # Total snoops (Count)
system.membus.snoopTraffic                    1408768                       # Total snoop traffic (Byte)
system.membus.snoopFanout::samples              60531                       # Request fanout histogram (Count)
system.membus.snoopFanout::mean              0.630206                       # Request fanout histogram (Count)
system.membus.snoopFanout::stdev             0.482753                       # Request fanout histogram (Count)
system.membus.snoopFanout::underflows               0      0.00%      0.00% # Request fanout histogram (Count)
system.membus.snoopFanout::0                    22384     36.98%     36.98% # Request fanout histogram (Count)
system.membus.snoopFanout::1                    38147     63.02%    100.00% # Request fanout histogram (Count)
system.membus.snoopFanout::2                        0      0.00%    100.00% # Request fanout histogram (Count)
system.membus.snoopFanout::3                        0      0.00%    100.00% # Request fanout histogram (Count)
system.membus.snoopFanout::4                        0      0.00%    100.00% # Request fanout histogram (Count)
system.membus.snoopFanout::5                        0      0.00%    100.00% # Request fanout histogram (Count)
system.membus.snoopFanout::6                        0      0.00%    100.00% # Request fanout histogram (Count)
system.membus.snoopFanout::7                        0      0.00%    100.00% # Request fanout histogram (Count)
system.membus.snoopFanout::8                        0      0.00%    100.00% # Request fanout histogram (Count)
system.membus.snoopFanout::9                        0      0.00%    100.00% # Request fanout histogram (Count)
system.membus.snoopFanout::10                       0      0.00%    100.00% # Request fanout histogram (Count)
system.membus.snoopFanout::11                       0      0.00%    100.00% # Request fanout histogram (Count)
system.membus.snoopFanout::12                       0      0.00%    100.00% # Request fanout histogram (Count)
system.membus.snoopFanout::13                       0      0.00%    100.00% # Request fanout histogram (Count)
system.membus.snoopFanout::14                       0      0.00%    100.00% # Request fanout histogram (Count)
system.membus.snoopFanout::15                       0      0.00%    100.00% # Request fanout histogram (Count)
system.membus.snoopFanout::16                       0      0.00%    100.00% # Request fanout histogram (Count)
system.membus.snoopFanout::overflows                0      0.00%    100.00% # Request fanout histogram (Count)
system.membus.snoopFanout::min_value                0                       # Request fanout histogram (Count)
system.membus.snoopFanout::max_value                1                       # Request fanout histogram (Count)
system.membus.snoopFanout::total                60531                       # Request fanout histogram (Count)
system.membus.power_state.pwrStateResidencyTicks::UNDEFINED   2102091250                       # Cumulative time (in ticks) in various power states (Tick)
system.membus.reqLayer32.occupancy           55537034                       # Layer occupancy (ticks) (Tick)
system.membus.reqLayer32.utilization              0.0                       # Layer utilization (Ratio)
system.membus.reqLayer33.occupancy           34564999                       # Layer occupancy (ticks) (Tick)
system.membus.reqLayer33.utilization              0.0                       # Layer utilization (Ratio)
system.membus.respLayer1.occupancy          133147011                       # Layer occupancy (ticks) (Tick)
system.membus.respLayer1.utilization              0.1                       # Layer utilization (Ratio)
system.membus.respLayer13.occupancy             10500                       # Layer occupancy (ticks) (Tick)
system.membus.respLayer13.utilization             0.0                       # Layer utilization (Ratio)
system.membus.respLayer17.occupancy             10250                       # Layer occupancy (ticks) (Tick)
system.membus.respLayer17.utilization             0.0                       # Layer utilization (Ratio)
system.membus.respLayer21.occupancy             11250                       # Layer occupancy (ticks) (Tick)
system.membus.respLayer21.utilization             0.0                       # Layer utilization (Ratio)
system.membus.respLayer25.occupancy             11000                       # Layer occupancy (ticks) (Tick)
system.membus.respLayer25.utilization             0.0                       # Layer utilization (Ratio)
system.membus.respLayer29.occupancy             11000                       # Layer occupancy (ticks) (Tick)
system.membus.respLayer29.utilization             0.0                       # Layer utilization (Ratio)
system.membus.respLayer33.occupancy         111169001                       # Layer occupancy (ticks) (Tick)
system.membus.respLayer33.utilization             0.1                       # Layer utilization (Ratio)
system.membus.respLayer37.occupancy             11000                       # Layer occupancy (ticks) (Tick)
system.membus.respLayer37.utilization             0.0                       # Layer utilization (Ratio)
system.membus.respLayer41.occupancy             11000                       # Layer occupancy (ticks) (Tick)
system.membus.respLayer41.utilization             0.0                       # Layer utilization (Ratio)
system.membus.respLayer45.occupancy             10750                       # Layer occupancy (ticks) (Tick)
system.membus.respLayer45.utilization             0.0                       # Layer utilization (Ratio)
system.membus.respLayer49.occupancy             10750                       # Layer occupancy (ticks) (Tick)
system.membus.respLayer49.utilization             0.0                       # Layer utilization (Ratio)
system.membus.respLayer5.occupancy              10750                       # Layer occupancy (ticks) (Tick)
system.membus.respLayer5.utilization              0.0                       # Layer utilization (Ratio)
system.membus.respLayer53.occupancy             10750                       # Layer occupancy (ticks) (Tick)
system.membus.respLayer53.utilization             0.0                       # Layer utilization (Ratio)
system.membus.respLayer57.occupancy             10500                       # Layer occupancy (ticks) (Tick)
system.membus.respLayer57.utilization             0.0                       # Layer utilization (Ratio)
system.membus.respLayer61.occupancy             10500                       # Layer occupancy (ticks) (Tick)
system.membus.respLayer61.utilization             0.0                       # Layer utilization (Ratio)
system.membus.respLayer9.occupancy              10500                       # Layer occupancy (ticks) (Tick)
system.membus.respLayer9.utilization              0.0                       # Layer utilization (Ratio)
system.membus.snoop_filter.totRequests          60531                       # Total number of requests made to the snoop filter. (Count)
system.membus.snoop_filter.hitSingleRequests        11253                       # Number of requests hitting in the snoop filter with a single holder of the requested data. (Count)
system.membus.snoop_filter.hitMultiRequests        26894                       # Number of requests hitting in the snoop filter with multiple (>1) holders of the requested data. (Count)
system.membus.snoop_filter.totSnoops                0                       # Total number of snoops made to the snoop filter. (Count)
system.membus.snoop_filter.hitSingleSnoops            0                       # Number of snoops hitting in the snoop filter with a single holder of the requested data. (Count)
system.membus.snoop_filter.hitMultiSnoops            0                       # Number of snoops hitting in the snoop filter with multiple (>1) holders of the requested data. (Count)
system.workload.inst.arm                            0                       # number of arm instructions executed (Count)
system.workload.inst.quiesce                        0                       # number of quiesce instructions executed (Count)

---------- End Simulation Statistics   ----------
