
---------- Begin Simulation Statistics ----------
simSeconds                                   0.003640                       # Number of seconds simulated (Second)
simTicks                                   3640370500                       # Number of ticks simulated (Tick)
finalTick                                  3640370500                       # Number of ticks from beginning of simulation (restored from checkpoints and never reset) (Tick)
simFreq                                  1000000000000                       # The number of ticks per simulated second ((Tick/Second))
hostSeconds                                     64.48                       # Real time elapsed on the host (Second)
hostTickRate                                 56460102                       # The number of ticks simulated per host second (ticks/s) ((Tick/Second))
hostMemory                                    4310980                       # Number of bytes of host memory used (Byte)
simInsts                                     24695747                       # Number of instructions simulated (Count)
simOps                                       45922951                       # Number of ops (including micro ops) simulated (Count)
hostInstRate                                   383017                       # Simulator instruction rate (inst/s) ((Count/Second))
hostOpRate                                     712238                       # Simulator op (including micro ops) rate (op/s) ((Count/Second))
system.bridge0.power_state.pwrStateResidencyTicks::UNDEFINED   3640370500                       # Cumulative time (in ticks) in various power states (Tick)
system.bridge1.power_state.pwrStateResidencyTicks::UNDEFINED   3640370500                       # Cumulative time (in ticks) in various power states (Tick)
system.clk_domain.clock                          1000                       # Clock period in ticks (Tick)
system.clk_domain.voltage_domain.voltage            1                       # Voltage in Volts (Volt)
system.node0.cpus0.numCycles                 14561483                       # Number of cpu cycles simulated (Cycle)
system.node0.cpus0.cpi                       0.643838                       # CPI: cycles per instruction (core level) ((Cycle/Count))
system.node0.cpus0.ipc                       1.553186                       # IPC: instructions per cycle (core level) ((Count/Cycle))
system.node0.cpus0.numWorkItemsStarted              0                       # Number of work items this cpu started (Count)
system.node0.cpus0.numWorkItemsCompleted            0                       # Number of work items this cpu completed (Count)
system.node0.cpus0.instsAdded                43739262                       # Number of instructions added to the IQ (excludes non-spec) (Count)
system.node0.cpus0.nonSpecInstsAdded             2685                       # Number of non-speculative instructions added to the IQ (Count)
system.node0.cpus0.instsIssued               43097367                       # Number of instructions issued (Count)
system.node0.cpus0.squashedInstsIssued          51683                       # Number of squashed instructions issued (Count)
system.node0.cpus0.squashedInstsExamined      1589120                       # Number of squashed instructions iterated over during squash; mainly for profiling (Count)
system.node0.cpus0.squashedOperandsExamined      3108235                       # Number of squashed operands that are examined and possibly removed from graph (Count)
system.node0.cpus0.squashedNonSpecRemoved          722                       # Number of squashed non-spec instructions that were removed (Count)
system.node0.cpus0.numIssuedDist::samples     14099972                       # Number of insts issued each cycle (Count)
system.node0.cpus0.numIssuedDist::mean       3.056557                       # Number of insts issued each cycle (Count)
system.node0.cpus0.numIssuedDist::stdev      2.913942                       # Number of insts issued each cycle (Count)
system.node0.cpus0.numIssuedDist::underflows            0      0.00%      0.00% # Number of insts issued each cycle (Count)
system.node0.cpus0.numIssuedDist::0           5243866     37.19%     37.19% # Number of insts issued each cycle (Count)
system.node0.cpus0.numIssuedDist::1            737832      5.23%     42.42% # Number of insts issued each cycle (Count)
system.node0.cpus0.numIssuedDist::2            871798      6.18%     48.61% # Number of insts issued each cycle (Count)
system.node0.cpus0.numIssuedDist::3            933794      6.62%     55.23% # Number of insts issued each cycle (Count)
system.node0.cpus0.numIssuedDist::4           1231427      8.73%     63.96% # Number of insts issued each cycle (Count)
system.node0.cpus0.numIssuedDist::5           1244891      8.83%     72.79% # Number of insts issued each cycle (Count)
system.node0.cpus0.numIssuedDist::6           1434707     10.18%     82.97% # Number of insts issued each cycle (Count)
system.node0.cpus0.numIssuedDist::7           1157104      8.21%     91.17% # Number of insts issued each cycle (Count)
system.node0.cpus0.numIssuedDist::8           1244553      8.83%    100.00% # Number of insts issued each cycle (Count)
system.node0.cpus0.numIssuedDist::overflows            0      0.00%    100.00% # Number of insts issued each cycle (Count)
system.node0.cpus0.numIssuedDist::min_value            0                       # Number of insts issued each cycle (Count)
system.node0.cpus0.numIssuedDist::max_value            8                       # Number of insts issued each cycle (Count)
system.node0.cpus0.numIssuedDist::total      14099972                       # Number of insts issued each cycle (Count)
system.node0.cpus0.statFuBusy::No_OpClass            0      0.00%      0.00% # attempts to use FU when none available (Count)
system.node0.cpus0.statFuBusy::IntAlu          143944      6.24%      6.24% # attempts to use FU when none available (Count)
system.node0.cpus0.statFuBusy::IntMult              0      0.00%      6.24% # attempts to use FU when none available (Count)
system.node0.cpus0.statFuBusy::IntDiv               0      0.00%      6.24% # attempts to use FU when none available (Count)
system.node0.cpus0.statFuBusy::FloatAdd             0      0.00%      6.24% # attempts to use FU when none available (Count)
system.node0.cpus0.statFuBusy::FloatCmp             0      0.00%      6.24% # attempts to use FU when none available (Count)
system.node0.cpus0.statFuBusy::FloatCvt             0      0.00%      6.24% # attempts to use FU when none available (Count)
system.node0.cpus0.statFuBusy::FloatMult            0      0.00%      6.24% # attempts to use FU when none available (Count)
system.node0.cpus0.statFuBusy::FloatMultAcc            0      0.00%      6.24% # attempts to use FU when none available (Count)
system.node0.cpus0.statFuBusy::FloatDiv             0      0.00%      6.24% # attempts to use FU when none available (Count)
system.node0.cpus0.statFuBusy::FloatMisc            0      0.00%      6.24% # attempts to use FU when none available (Count)
system.node0.cpus0.statFuBusy::FloatSqrt            0      0.00%      6.24% # attempts to use FU when none available (Count)
system.node0.cpus0.statFuBusy::SimdAdd              1      0.00%      6.24% # attempts to use FU when none available (Count)
system.node0.cpus0.statFuBusy::SimdAddAcc            0      0.00%      6.24% # attempts to use FU when none available (Count)
system.node0.cpus0.statFuBusy::SimdAlu          53419      2.32%      8.56% # attempts to use FU when none available (Count)
system.node0.cpus0.statFuBusy::SimdCmp              2      0.00%      8.56% # attempts to use FU when none available (Count)
system.node0.cpus0.statFuBusy::SimdCvt             16      0.00%      8.56% # attempts to use FU when none available (Count)
system.node0.cpus0.statFuBusy::SimdMisc           100      0.00%      8.56% # attempts to use FU when none available (Count)
system.node0.cpus0.statFuBusy::SimdMult             0      0.00%      8.56% # attempts to use FU when none available (Count)
system.node0.cpus0.statFuBusy::SimdMultAcc            0      0.00%      8.56% # attempts to use FU when none available (Count)
system.node0.cpus0.statFuBusy::SimdMatMultAcc            0      0.00%      8.56% # attempts to use FU when none available (Count)
system.node0.cpus0.statFuBusy::SimdShift            2      0.00%      8.56% # attempts to use FU when none available (Count)
system.node0.cpus0.statFuBusy::SimdShiftAcc            0      0.00%      8.56% # attempts to use FU when none available (Count)
system.node0.cpus0.statFuBusy::SimdDiv              0      0.00%      8.56% # attempts to use FU when none available (Count)
system.node0.cpus0.statFuBusy::SimdSqrt             0      0.00%      8.56% # attempts to use FU when none available (Count)
system.node0.cpus0.statFuBusy::SimdFloatAdd       293003     12.70%     21.27% # attempts to use FU when none available (Count)
system.node0.cpus0.statFuBusy::SimdFloatAlu            0      0.00%     21.27% # attempts to use FU when none available (Count)
system.node0.cpus0.statFuBusy::SimdFloatCmp        12040      0.52%     21.79% # attempts to use FU when none available (Count)
system.node0.cpus0.statFuBusy::SimdFloatCvt          630      0.03%     21.82% # attempts to use FU when none available (Count)
system.node0.cpus0.statFuBusy::SimdFloatDiv            0      0.00%     21.82% # attempts to use FU when none available (Count)
system.node0.cpus0.statFuBusy::SimdFloatMisc            0      0.00%     21.82% # attempts to use FU when none available (Count)
system.node0.cpus0.statFuBusy::SimdFloatMult       177933      7.71%     29.53% # attempts to use FU when none available (Count)
system.node0.cpus0.statFuBusy::SimdFloatMultAcc            0      0.00%     29.53% # attempts to use FU when none available (Count)
system.node0.cpus0.statFuBusy::SimdFloatMatMultAcc            0      0.00%     29.53% # attempts to use FU when none available (Count)
system.node0.cpus0.statFuBusy::SimdFloatSqrt            0      0.00%     29.53% # attempts to use FU when none available (Count)
system.node0.cpus0.statFuBusy::SimdReduceAdd            0      0.00%     29.53% # attempts to use FU when none available (Count)
system.node0.cpus0.statFuBusy::SimdReduceAlu            0      0.00%     29.53% # attempts to use FU when none available (Count)
system.node0.cpus0.statFuBusy::SimdReduceCmp            0      0.00%     29.53% # attempts to use FU when none available (Count)
system.node0.cpus0.statFuBusy::SimdFloatReduceAdd            0      0.00%     29.53% # attempts to use FU when none available (Count)
system.node0.cpus0.statFuBusy::SimdFloatReduceCmp            0      0.00%     29.53% # attempts to use FU when none available (Count)
system.node0.cpus0.statFuBusy::SimdAes              0      0.00%     29.53% # attempts to use FU when none available (Count)
system.node0.cpus0.statFuBusy::SimdAesMix            0      0.00%     29.53% # attempts to use FU when none available (Count)
system.node0.cpus0.statFuBusy::SimdSha1Hash            0      0.00%     29.53% # attempts to use FU when none available (Count)
system.node0.cpus0.statFuBusy::SimdSha1Hash2            0      0.00%     29.53% # attempts to use FU when none available (Count)
system.node0.cpus0.statFuBusy::SimdSha256Hash            0      0.00%     29.53% # attempts to use FU when none available (Count)
system.node0.cpus0.statFuBusy::SimdSha256Hash2            0      0.00%     29.53% # attempts to use FU when none available (Count)
system.node0.cpus0.statFuBusy::SimdShaSigma2            0      0.00%     29.53% # attempts to use FU when none available (Count)
system.node0.cpus0.statFuBusy::SimdShaSigma3            0      0.00%     29.53% # attempts to use FU when none available (Count)
system.node0.cpus0.statFuBusy::SimdSha3             0      0.00%     29.53% # attempts to use FU when none available (Count)
system.node0.cpus0.statFuBusy::SimdSm4e             0      0.00%     29.53% # attempts to use FU when none available (Count)
system.node0.cpus0.statFuBusy::SimdCrc              0      0.00%     29.53% # attempts to use FU when none available (Count)
system.node0.cpus0.statFuBusy::SimdPredAlu            0      0.00%     29.53% # attempts to use FU when none available (Count)
system.node0.cpus0.statFuBusy::SimdDotProd            0      0.00%     29.53% # attempts to use FU when none available (Count)
system.node0.cpus0.statFuBusy::Matrix               0      0.00%     29.53% # attempts to use FU when none available (Count)
system.node0.cpus0.statFuBusy::MatrixMov            0      0.00%     29.53% # attempts to use FU when none available (Count)
system.node0.cpus0.statFuBusy::MatrixOP             0      0.00%     29.53% # attempts to use FU when none available (Count)
system.node0.cpus0.statFuBusy::MemRead          42770      1.85%     31.38% # attempts to use FU when none available (Count)
system.node0.cpus0.statFuBusy::MemWrite          3702      0.16%     31.55% # attempts to use FU when none available (Count)
system.node0.cpus0.statFuBusy::FloatMemRead      1573697     68.23%     99.78% # attempts to use FU when none available (Count)
system.node0.cpus0.statFuBusy::FloatMemWrite         5159      0.22%    100.00% # attempts to use FU when none available (Count)
system.node0.cpus0.statFuBusy::InstPrefetch            0      0.00%    100.00% # attempts to use FU when none available (Count)
system.node0.cpus0.statFuBusy::SimdUnitStrideLoad            0      0.00%    100.00% # attempts to use FU when none available (Count)
system.node0.cpus0.statFuBusy::SimdUnitStrideStore            0      0.00%    100.00% # attempts to use FU when none available (Count)
system.node0.cpus0.statFuBusy::SimdUnitStrideMaskLoad            0      0.00%    100.00% # attempts to use FU when none available (Count)
system.node0.cpus0.statFuBusy::SimdUnitStrideMaskStore            0      0.00%    100.00% # attempts to use FU when none available (Count)
system.node0.cpus0.statFuBusy::SimdStridedLoad            0      0.00%    100.00% # attempts to use FU when none available (Count)
system.node0.cpus0.statFuBusy::SimdStridedStore            0      0.00%    100.00% # attempts to use FU when none available (Count)
system.node0.cpus0.statFuBusy::SimdIndexedLoad            0      0.00%    100.00% # attempts to use FU when none available (Count)
system.node0.cpus0.statFuBusy::SimdIndexedStore            0      0.00%    100.00% # attempts to use FU when none available (Count)
system.node0.cpus0.statFuBusy::SimdWholeRegisterLoad            0      0.00%    100.00% # attempts to use FU when none available (Count)
system.node0.cpus0.statFuBusy::SimdWholeRegisterStore            0      0.00%    100.00% # attempts to use FU when none available (Count)
system.node0.cpus0.statFuBusy::SimdUnitStrideFaultOnlyFirstLoad            0      0.00%    100.00% # attempts to use FU when none available (Count)
system.node0.cpus0.statFuBusy::SimdUnitStrideSegmentedLoad            0      0.00%    100.00% # attempts to use FU when none available (Count)
system.node0.cpus0.statFuBusy::SimdUnitStrideSegmentedStore            0      0.00%    100.00% # attempts to use FU when none available (Count)
system.node0.cpus0.statFuBusy::SimdUnitStrideSegmentedFaultOnlyFirstLoad            0      0.00%    100.00% # attempts to use FU when none available (Count)
system.node0.cpus0.statFuBusy::SimdStrideSegmentedLoad            0      0.00%    100.00% # attempts to use FU when none available (Count)
system.node0.cpus0.statFuBusy::SimdStrideSegmentedStore            0      0.00%    100.00% # attempts to use FU when none available (Count)
system.node0.cpus0.statFuBusy::SimdExt              0      0.00%    100.00% # attempts to use FU when none available (Count)
system.node0.cpus0.statFuBusy::SimdFloatExt            0      0.00%    100.00% # attempts to use FU when none available (Count)
system.node0.cpus0.statFuBusy::SimdConfig            0      0.00%    100.00% # attempts to use FU when none available (Count)
system.node0.cpus0.statFuBusy::SimdBf16Add            0      0.00%    100.00% # attempts to use FU when none available (Count)
system.node0.cpus0.statFuBusy::SimdBf16Cmp            0      0.00%    100.00% # attempts to use FU when none available (Count)
system.node0.cpus0.statFuBusy::SimdBf16Cvt            0      0.00%    100.00% # attempts to use FU when none available (Count)
system.node0.cpus0.statFuBusy::SimdBf16DotProd            0      0.00%    100.00% # attempts to use FU when none available (Count)
system.node0.cpus0.statFuBusy::SimdBf16MatMultAcc            0      0.00%    100.00% # attempts to use FU when none available (Count)
system.node0.cpus0.statFuBusy::SimdBf16Mult            0      0.00%    100.00% # attempts to use FU when none available (Count)
system.node0.cpus0.statFuBusy::SimdBf16MultAcc            0      0.00%    100.00% # attempts to use FU when none available (Count)
system.node0.cpus0.statFuBusy::Bf16Cvt              0      0.00%    100.00% # attempts to use FU when none available (Count)
system.node0.cpus0.statFuBusy::System               0      0.00%    100.00% # attempts to use FU when none available (Count)
system.node0.cpus0.issuedInstType_0::No_OpClass        96797      0.22%      0.22% # Number of instructions issued per FU type, per thread (Count)
system.node0.cpus0.issuedInstType_0::IntAlu     14770507     34.27%     34.50% # Number of instructions issued per FU type, per thread (Count)
system.node0.cpus0.issuedInstType_0::IntMult       236068      0.55%     35.04% # Number of instructions issued per FU type, per thread (Count)
system.node0.cpus0.issuedInstType_0::IntDiv         7473      0.02%     35.06% # Number of instructions issued per FU type, per thread (Count)
system.node0.cpus0.issuedInstType_0::FloatAdd       309993      0.72%     35.78% # Number of instructions issued per FU type, per thread (Count)
system.node0.cpus0.issuedInstType_0::FloatCmp            0      0.00%     35.78% # Number of instructions issued per FU type, per thread (Count)
system.node0.cpus0.issuedInstType_0::FloatCvt            0      0.00%     35.78% # Number of instructions issued per FU type, per thread (Count)
system.node0.cpus0.issuedInstType_0::FloatMult            0      0.00%     35.78% # Number of instructions issued per FU type, per thread (Count)
system.node0.cpus0.issuedInstType_0::FloatMultAcc            0      0.00%     35.78% # Number of instructions issued per FU type, per thread (Count)
system.node0.cpus0.issuedInstType_0::FloatDiv            0      0.00%     35.78% # Number of instructions issued per FU type, per thread (Count)
system.node0.cpus0.issuedInstType_0::FloatMisc            0      0.00%     35.78% # Number of instructions issued per FU type, per thread (Count)
system.node0.cpus0.issuedInstType_0::FloatSqrt            0      0.00%     35.78% # Number of instructions issued per FU type, per thread (Count)
system.node0.cpus0.issuedInstType_0::SimdAdd          378      0.00%     35.78% # Number of instructions issued per FU type, per thread (Count)
system.node0.cpus0.issuedInstType_0::SimdAddAcc            0      0.00%     35.78% # Number of instructions issued per FU type, per thread (Count)
system.node0.cpus0.issuedInstType_0::SimdAlu       279430      0.65%     36.43% # Number of instructions issued per FU type, per thread (Count)
system.node0.cpus0.issuedInstType_0::SimdCmp           29      0.00%     36.43% # Number of instructions issued per FU type, per thread (Count)
system.node0.cpus0.issuedInstType_0::SimdCvt         1781      0.00%     36.43% # Number of instructions issued per FU type, per thread (Count)
system.node0.cpus0.issuedInstType_0::SimdMisc       152375      0.35%     36.79% # Number of instructions issued per FU type, per thread (Count)
system.node0.cpus0.issuedInstType_0::SimdMult            0      0.00%     36.79% # Number of instructions issued per FU type, per thread (Count)
system.node0.cpus0.issuedInstType_0::SimdMultAcc            0      0.00%     36.79% # Number of instructions issued per FU type, per thread (Count)
system.node0.cpus0.issuedInstType_0::SimdMatMultAcc            0      0.00%     36.79% # Number of instructions issued per FU type, per thread (Count)
system.node0.cpus0.issuedInstType_0::SimdShift         1055      0.00%     36.79% # Number of instructions issued per FU type, per thread (Count)
system.node0.cpus0.issuedInstType_0::SimdShiftAcc            0      0.00%     36.79% # Number of instructions issued per FU type, per thread (Count)
system.node0.cpus0.issuedInstType_0::SimdDiv            0      0.00%     36.79% # Number of instructions issued per FU type, per thread (Count)
system.node0.cpus0.issuedInstType_0::SimdSqrt            0      0.00%     36.79% # Number of instructions issued per FU type, per thread (Count)
system.node0.cpus0.issuedInstType_0::SimdFloatAdd      8820719     20.47%     57.26% # Number of instructions issued per FU type, per thread (Count)
system.node0.cpus0.issuedInstType_0::SimdFloatAlu            0      0.00%     57.26% # Number of instructions issued per FU type, per thread (Count)
system.node0.cpus0.issuedInstType_0::SimdFloatCmp       140285      0.33%     57.58% # Number of instructions issued per FU type, per thread (Count)
system.node0.cpus0.issuedInstType_0::SimdFloatCvt       212733      0.49%     58.08% # Number of instructions issued per FU type, per thread (Count)
system.node0.cpus0.issuedInstType_0::SimdFloatDiv           15      0.00%     58.08% # Number of instructions issued per FU type, per thread (Count)
system.node0.cpus0.issuedInstType_0::SimdFloatMisc            0      0.00%     58.08% # Number of instructions issued per FU type, per thread (Count)
system.node0.cpus0.issuedInstType_0::SimdFloatMult      2326689      5.40%     63.48% # Number of instructions issued per FU type, per thread (Count)
system.node0.cpus0.issuedInstType_0::SimdFloatMultAcc            0      0.00%     63.48% # Number of instructions issued per FU type, per thread (Count)
system.node0.cpus0.issuedInstType_0::SimdFloatMatMultAcc            0      0.00%     63.48% # Number of instructions issued per FU type, per thread (Count)
system.node0.cpus0.issuedInstType_0::SimdFloatSqrt            4      0.00%     63.48% # Number of instructions issued per FU type, per thread (Count)
system.node0.cpus0.issuedInstType_0::SimdReduceAdd            0      0.00%     63.48% # Number of instructions issued per FU type, per thread (Count)
system.node0.cpus0.issuedInstType_0::SimdReduceAlu            0      0.00%     63.48% # Number of instructions issued per FU type, per thread (Count)
system.node0.cpus0.issuedInstType_0::SimdReduceCmp            0      0.00%     63.48% # Number of instructions issued per FU type, per thread (Count)
system.node0.cpus0.issuedInstType_0::SimdFloatReduceAdd            0      0.00%     63.48% # Number of instructions issued per FU type, per thread (Count)
system.node0.cpus0.issuedInstType_0::SimdFloatReduceCmp            0      0.00%     63.48% # Number of instructions issued per FU type, per thread (Count)
system.node0.cpus0.issuedInstType_0::SimdAes            0      0.00%     63.48% # Number of instructions issued per FU type, per thread (Count)
system.node0.cpus0.issuedInstType_0::SimdAesMix            0      0.00%     63.48% # Number of instructions issued per FU type, per thread (Count)
system.node0.cpus0.issuedInstType_0::SimdSha1Hash            0      0.00%     63.48% # Number of instructions issued per FU type, per thread (Count)
system.node0.cpus0.issuedInstType_0::SimdSha1Hash2            0      0.00%     63.48% # Number of instructions issued per FU type, per thread (Count)
system.node0.cpus0.issuedInstType_0::SimdSha256Hash            0      0.00%     63.48% # Number of instructions issued per FU type, per thread (Count)
system.node0.cpus0.issuedInstType_0::SimdSha256Hash2            0      0.00%     63.48% # Number of instructions issued per FU type, per thread (Count)
system.node0.cpus0.issuedInstType_0::SimdShaSigma2            0      0.00%     63.48% # Number of instructions issued per FU type, per thread (Count)
system.node0.cpus0.issuedInstType_0::SimdShaSigma3            0      0.00%     63.48% # Number of instructions issued per FU type, per thread (Count)
system.node0.cpus0.issuedInstType_0::SimdSha3            0      0.00%     63.48% # Number of instructions issued per FU type, per thread (Count)
system.node0.cpus0.issuedInstType_0::SimdSm4e            0      0.00%     63.48% # Number of instructions issued per FU type, per thread (Count)
system.node0.cpus0.issuedInstType_0::SimdCrc            0      0.00%     63.48% # Number of instructions issued per FU type, per thread (Count)
system.node0.cpus0.issuedInstType_0::SimdPredAlu            0      0.00%     63.48% # Number of instructions issued per FU type, per thread (Count)
system.node0.cpus0.issuedInstType_0::SimdDotProd            0      0.00%     63.48% # Number of instructions issued per FU type, per thread (Count)
system.node0.cpus0.issuedInstType_0::Matrix            0      0.00%     63.48% # Number of instructions issued per FU type, per thread (Count)
system.node0.cpus0.issuedInstType_0::MatrixMov            0      0.00%     63.48% # Number of instructions issued per FU type, per thread (Count)
system.node0.cpus0.issuedInstType_0::MatrixOP            0      0.00%     63.48% # Number of instructions issued per FU type, per thread (Count)
system.node0.cpus0.issuedInstType_0::MemRead      1238074      2.87%     66.35% # Number of instructions issued per FU type, per thread (Count)
system.node0.cpus0.issuedInstType_0::MemWrite       439453      1.02%     67.37% # Number of instructions issued per FU type, per thread (Count)
system.node0.cpus0.issuedInstType_0::FloatMemRead     11183583     25.95%     93.32% # Number of instructions issued per FU type, per thread (Count)
system.node0.cpus0.issuedInstType_0::FloatMemWrite      2879926      6.68%    100.00% # Number of instructions issued per FU type, per thread (Count)
system.node0.cpus0.issuedInstType_0::InstPrefetch            0      0.00%    100.00% # Number of instructions issued per FU type, per thread (Count)
system.node0.cpus0.issuedInstType_0::SimdUnitStrideLoad            0      0.00%    100.00% # Number of instructions issued per FU type, per thread (Count)
system.node0.cpus0.issuedInstType_0::SimdUnitStrideStore            0      0.00%    100.00% # Number of instructions issued per FU type, per thread (Count)
system.node0.cpus0.issuedInstType_0::SimdUnitStrideMaskLoad            0      0.00%    100.00% # Number of instructions issued per FU type, per thread (Count)
system.node0.cpus0.issuedInstType_0::SimdUnitStrideMaskStore            0      0.00%    100.00% # Number of instructions issued per FU type, per thread (Count)
system.node0.cpus0.issuedInstType_0::SimdStridedLoad            0      0.00%    100.00% # Number of instructions issued per FU type, per thread (Count)
system.node0.cpus0.issuedInstType_0::SimdStridedStore            0      0.00%    100.00% # Number of instructions issued per FU type, per thread (Count)
system.node0.cpus0.issuedInstType_0::SimdIndexedLoad            0      0.00%    100.00% # Number of instructions issued per FU type, per thread (Count)
system.node0.cpus0.issuedInstType_0::SimdIndexedStore            0      0.00%    100.00% # Number of instructions issued per FU type, per thread (Count)
system.node0.cpus0.issuedInstType_0::SimdWholeRegisterLoad            0      0.00%    100.00% # Number of instructions issued per FU type, per thread (Count)
system.node0.cpus0.issuedInstType_0::SimdWholeRegisterStore            0      0.00%    100.00% # Number of instructions issued per FU type, per thread (Count)
system.node0.cpus0.issuedInstType_0::SimdUnitStrideFaultOnlyFirstLoad            0      0.00%    100.00% # Number of instructions issued per FU type, per thread (Count)
system.node0.cpus0.issuedInstType_0::SimdUnitStrideSegmentedLoad            0      0.00%    100.00% # Number of instructions issued per FU type, per thread (Count)
system.node0.cpus0.issuedInstType_0::SimdUnitStrideSegmentedStore            0      0.00%    100.00% # Number of instructions issued per FU type, per thread (Count)
system.node0.cpus0.issuedInstType_0::SimdUnitStrideSegmentedFaultOnlyFirstLoad            0      0.00%    100.00% # Number of instructions issued per FU type, per thread (Count)
system.node0.cpus0.issuedInstType_0::SimdStrideSegmentedLoad            0      0.00%    100.00% # Number of instructions issued per FU type, per thread (Count)
system.node0.cpus0.issuedInstType_0::SimdStrideSegmentedStore            0      0.00%    100.00% # Number of instructions issued per FU type, per thread (Count)
system.node0.cpus0.issuedInstType_0::SimdExt            0      0.00%    100.00% # Number of instructions issued per FU type, per thread (Count)
system.node0.cpus0.issuedInstType_0::SimdFloatExt            0      0.00%    100.00% # Number of instructions issued per FU type, per thread (Count)
system.node0.cpus0.issuedInstType_0::SimdConfig            0      0.00%    100.00% # Number of instructions issued per FU type, per thread (Count)
system.node0.cpus0.issuedInstType_0::SimdBf16Add            0      0.00%    100.00% # Number of instructions issued per FU type, per thread (Count)
system.node0.cpus0.issuedInstType_0::SimdBf16Cmp            0      0.00%    100.00% # Number of instructions issued per FU type, per thread (Count)
system.node0.cpus0.issuedInstType_0::SimdBf16Cvt            0      0.00%    100.00% # Number of instructions issued per FU type, per thread (Count)
system.node0.cpus0.issuedInstType_0::SimdBf16DotProd            0      0.00%    100.00% # Number of instructions issued per FU type, per thread (Count)
system.node0.cpus0.issuedInstType_0::SimdBf16MatMultAcc            0      0.00%    100.00% # Number of instructions issued per FU type, per thread (Count)
system.node0.cpus0.issuedInstType_0::SimdBf16Mult            0      0.00%    100.00% # Number of instructions issued per FU type, per thread (Count)
system.node0.cpus0.issuedInstType_0::SimdBf16MultAcc            0      0.00%    100.00% # Number of instructions issued per FU type, per thread (Count)
system.node0.cpus0.issuedInstType_0::Bf16Cvt            0      0.00%    100.00% # Number of instructions issued per FU type, per thread (Count)
system.node0.cpus0.issuedInstType_0::System            0      0.00%    100.00% # Number of instructions issued per FU type, per thread (Count)
system.node0.cpus0.issuedInstType_0::total     43097367                       # Number of instructions issued per FU type, per thread (Count)
system.node0.cpus0.issueRate                 2.959683                       # Inst issue rate ((Count/Cycle))
system.node0.cpus0.fuBusy                     2306418                       # FU busy when requested (Count)
system.node0.cpus0.fuBusyRate                0.053516                       # FU busy rate (busy events/executed inst) ((Count/Count))
system.node0.cpus0.intInstQueueReads         44325695                       # Number of integer instruction queue reads (Count)
system.node0.cpus0.intInstQueueWrites        15685542                       # Number of integer instruction queue writes (Count)
system.node0.cpus0.intInstQueueWakeupAccesses     14921531                       # Number of integer instruction queue wakeup accesses (Count)
system.node0.cpus0.fpInstQueueReads          58327112                       # Number of floating instruction queue reads (Count)
system.node0.cpus0.fpInstQueueWrites         29646148                       # Number of floating instruction queue writes (Count)
system.node0.cpus0.fpInstQueueWakeupAccesses     27734331                       # Number of floating instruction queue wakeup accesses (Count)
system.node0.cpus0.vecInstQueueReads                0                       # Number of vector instruction queue reads (Count)
system.node0.cpus0.vecInstQueueWrites               0                       # Number of vector instruction queue writes (Count)
system.node0.cpus0.vecInstQueueWakeupAccesses            0                       # Number of vector instruction queue wakeup accesses (Count)
system.node0.cpus0.intAluAccesses            15103427                       # Number of integer alu accesses (Count)
system.node0.cpus0.fpAluAccesses             30203561                       # Number of floating point alu accesses (Count)
system.node0.cpus0.vecAluAccesses                   0                       # Number of vector alu accesses (Count)
system.node0.cpus0.numRecvResp               15492013                       # Number of received responses (Count)
system.node0.cpus0.numRecvRespBytes         121751416                       # Number of received response bytes (Byte)
system.node0.cpus0.recvRespAvgBW                 8.36                       # Average bandwidth of received responses ((Byte/Cycle))
system.node0.cpus0.recvRespAvgSize               7.86                       # Average packet size per received response ((Byte/Count))
system.node0.cpus0.recvRespAvgRate               1.06                       # Average rate of received responses per cycle ((Count/Cycle))
system.node0.cpus0.recvRespAvgRetryRate          0.00                       # Average retry rate per received response ((Count/Count))
system.node0.cpus0.numSendRetryResp                 0                       # Number of retry responses sent (Count)
system.node0.cpus0.numSquashedInsts            226893                       # Number of squashed instructions skipped in execute (Count)
system.node0.cpus0.numSwp                           0                       # Number of swp insts executed (Count)
system.node0.cpus0.timesIdled                    1728                       # Number of times that the entire CPU went into an idle state and unscheduled itself (Count)
system.node0.cpus0.idleCycles                  461511                       # Total number of cycles that the CPU has spent unscheduled due to idling (Cycle)
system.node0.cpus0.MemDepUnit__0.insertedLoads     12466455                       # Number of loads inserted to the mem dependence unit. (Count)
system.node0.cpus0.MemDepUnit__0.insertedStores      3390578                       # Number of stores inserted to the mem dependence unit. (Count)
system.node0.cpus0.MemDepUnit__0.conflictingLoads       732280                       # Number of conflicting loads. (Count)
system.node0.cpus0.MemDepUnit__0.conflictingStores       626762                       # Number of conflicting stores. (Count)
system.node0.cpus0.MemDepUnit__1.insertedLoads            0                       # Number of loads inserted to the mem dependence unit. (Count)
system.node0.cpus0.MemDepUnit__1.insertedStores            0                       # Number of stores inserted to the mem dependence unit. (Count)
system.node0.cpus0.MemDepUnit__1.conflictingLoads            0                       # Number of conflicting loads. (Count)
system.node0.cpus0.MemDepUnit__1.conflictingStores            0                       # Number of conflicting stores. (Count)
system.node0.cpus0.MemDepUnit__2.insertedLoads            0                       # Number of loads inserted to the mem dependence unit. (Count)
system.node0.cpus0.MemDepUnit__2.insertedStores            0                       # Number of stores inserted to the mem dependence unit. (Count)
system.node0.cpus0.MemDepUnit__2.conflictingLoads            0                       # Number of conflicting loads. (Count)
system.node0.cpus0.MemDepUnit__2.conflictingStores            0                       # Number of conflicting stores. (Count)
system.node0.cpus0.MemDepUnit__3.insertedLoads            0                       # Number of loads inserted to the mem dependence unit. (Count)
system.node0.cpus0.MemDepUnit__3.insertedStores            0                       # Number of stores inserted to the mem dependence unit. (Count)
system.node0.cpus0.MemDepUnit__3.conflictingLoads            0                       # Number of conflicting loads. (Count)
system.node0.cpus0.MemDepUnit__3.conflictingStores            0                       # Number of conflicting stores. (Count)
system.node0.cpus0.bac.fetchTargets                 0                       # Number of fetch targets created  (Count)
system.node0.cpus0.bac.branches               1891581                       # Number of branches that BAC encountered (Count)
system.node0.cpus0.bac.predTakenBranches      1333732                       # Number of branches that BAC predicted taken. (Count)
system.node0.cpus0.bac.branchesNotLastuOp            0                       # Number of branches that fetch encountered which are not the last uOp within a macrooperation. Jump to itself. (Count)
system.node0.cpus0.bac.branchMisspredict        56586                       # Number of mispredicted branches (Count)
system.node0.cpus0.bac.noBranchMisspredict         1283                       # Number of non-branch instructions mispredicted (Count)
system.node0.cpus0.bac.squashBranchDecode         2317                       # Number of branches squashed from decode (Count)
system.node0.cpus0.bac.squashBranchCommit        54269                       # Number of branches squashed from commit (Count)
system.node0.cpus0.bac.preDecUpdate::NoBranch            0                       # Number of branches extracted from the predecoder (Count)
system.node0.cpus0.bac.preDecUpdate::Return            0                       # Number of branches extracted from the predecoder (Count)
system.node0.cpus0.bac.preDecUpdate::CallDirect            0                       # Number of branches extracted from the predecoder (Count)
system.node0.cpus0.bac.preDecUpdate::CallIndirect            0                       # Number of branches extracted from the predecoder (Count)
system.node0.cpus0.bac.preDecUpdate::DirectCond            0                       # Number of branches extracted from the predecoder (Count)
system.node0.cpus0.bac.preDecUpdate::DirectUncond            0                       # Number of branches extracted from the predecoder (Count)
system.node0.cpus0.bac.preDecUpdate::IndirectCond            0                       # Number of branches extracted from the predecoder (Count)
system.node0.cpus0.bac.preDecUpdate::IndirectUncond            0                       # Number of branches extracted from the predecoder (Count)
system.node0.cpus0.bac.preDecUpdate::total            0                       # Number of branches extracted from the predecoder (Count)
system.node0.cpus0.bac.noHistByType::NoBranch            0                       # Number and type of branches that were undetected by the BPU. (Count)
system.node0.cpus0.bac.noHistByType::Return            0                       # Number and type of branches that were undetected by the BPU. (Count)
system.node0.cpus0.bac.noHistByType::CallDirect            0                       # Number and type of branches that were undetected by the BPU. (Count)
system.node0.cpus0.bac.noHistByType::CallIndirect            0                       # Number and type of branches that were undetected by the BPU. (Count)
system.node0.cpus0.bac.noHistByType::DirectCond            0                       # Number and type of branches that were undetected by the BPU. (Count)
system.node0.cpus0.bac.noHistByType::DirectUncond            0                       # Number and type of branches that were undetected by the BPU. (Count)
system.node0.cpus0.bac.noHistByType::IndirectCond            0                       # Number and type of branches that were undetected by the BPU. (Count)
system.node0.cpus0.bac.noHistByType::IndirectUncond            0                       # Number and type of branches that were undetected by the BPU. (Count)
system.node0.cpus0.bac.noHistByType::total            0                       # Number and type of branches that were undetected by the BPU. (Count)
system.node0.cpus0.bac.typeMissmatch                0                       # Number branches where the branch type miss match (Count)
system.node0.cpus0.bac.multiBranchInst              0                       # Number branches because its not the last branch. (Count)
system.node0.cpus0.bac.ftSizeDist::samples            0                       # Number of bytes per fetch target (Count)
system.node0.cpus0.bac.ftSizeDist::mean           nan                       # Number of bytes per fetch target (Count)
system.node0.cpus0.bac.ftSizeDist::stdev          nan                       # Number of bytes per fetch target (Count)
system.node0.cpus0.bac.ftSizeDist::underflows            0                       # Number of bytes per fetch target (Count)
system.node0.cpus0.bac.ftSizeDist::0-3              0                       # Number of bytes per fetch target (Count)
system.node0.cpus0.bac.ftSizeDist::4-7              0                       # Number of bytes per fetch target (Count)
system.node0.cpus0.bac.ftSizeDist::8-11             0                       # Number of bytes per fetch target (Count)
system.node0.cpus0.bac.ftSizeDist::12-15            0                       # Number of bytes per fetch target (Count)
system.node0.cpus0.bac.ftSizeDist::16-19            0                       # Number of bytes per fetch target (Count)
system.node0.cpus0.bac.ftSizeDist::20-23            0                       # Number of bytes per fetch target (Count)
system.node0.cpus0.bac.ftSizeDist::24-27            0                       # Number of bytes per fetch target (Count)
system.node0.cpus0.bac.ftSizeDist::28-31            0                       # Number of bytes per fetch target (Count)
system.node0.cpus0.bac.ftSizeDist::32               0                       # Number of bytes per fetch target (Count)
system.node0.cpus0.bac.ftSizeDist::overflows            0                       # Number of bytes per fetch target (Count)
system.node0.cpus0.bac.ftSizeDist::min_value            0                       # Number of bytes per fetch target (Count)
system.node0.cpus0.bac.ftSizeDist::max_value            0                       # Number of bytes per fetch target (Count)
system.node0.cpus0.bac.ftSizeDist::total            0                       # Number of bytes per fetch target (Count)
system.node0.cpus0.bac.ftNumber::samples            0                       # Number of fetch target inserted to the FTQ per cycle (Count)
system.node0.cpus0.bac.ftNumber::mean             nan                       # Number of fetch target inserted to the FTQ per cycle (Count)
system.node0.cpus0.bac.ftNumber::stdev            nan                       # Number of fetch target inserted to the FTQ per cycle (Count)
system.node0.cpus0.bac.ftNumber::underflows            0                       # Number of fetch target inserted to the FTQ per cycle (Count)
system.node0.cpus0.bac.ftNumber::0                  0                       # Number of fetch target inserted to the FTQ per cycle (Count)
system.node0.cpus0.bac.ftNumber::1                  0                       # Number of fetch target inserted to the FTQ per cycle (Count)
system.node0.cpus0.bac.ftNumber::2                  0                       # Number of fetch target inserted to the FTQ per cycle (Count)
system.node0.cpus0.bac.ftNumber::3                  0                       # Number of fetch target inserted to the FTQ per cycle (Count)
system.node0.cpus0.bac.ftNumber::4                  0                       # Number of fetch target inserted to the FTQ per cycle (Count)
system.node0.cpus0.bac.ftNumber::overflows            0                       # Number of fetch target inserted to the FTQ per cycle (Count)
system.node0.cpus0.bac.ftNumber::min_value            0                       # Number of fetch target inserted to the FTQ per cycle (Count)
system.node0.cpus0.bac.ftNumber::max_value            0                       # Number of fetch target inserted to the FTQ per cycle (Count)
system.node0.cpus0.bac.ftNumber::total              0                       # Number of fetch target inserted to the FTQ per cycle (Count)
system.node0.cpus0.branchPred.lookups_0::NoBranch          450      0.02%      0.02% # Number of BP lookups (Count)
system.node0.cpus0.branchPred.lookups_0::Return        36238      1.92%      1.94% # Number of BP lookups (Count)
system.node0.cpus0.branchPred.lookups_0::CallDirect        36677      1.94%      3.88% # Number of BP lookups (Count)
system.node0.cpus0.branchPred.lookups_0::CallIndirect          711      0.04%      3.92% # Number of BP lookups (Count)
system.node0.cpus0.branchPred.lookups_0::DirectCond      1744060     92.20%     96.12% # Number of BP lookups (Count)
system.node0.cpus0.branchPred.lookups_0::DirectUncond        51930      2.75%     98.86% # Number of BP lookups (Count)
system.node0.cpus0.branchPred.lookups_0::IndirectCond            0      0.00%     98.86% # Number of BP lookups (Count)
system.node0.cpus0.branchPred.lookups_0::IndirectUncond        21515      1.14%    100.00% # Number of BP lookups (Count)
system.node0.cpus0.branchPred.lookups_0::total      1891581                       # Number of BP lookups (Count)
system.node0.cpus0.branchPred.squashes_0::NoBranch          434      0.26%      0.26% # Number of branches that got squashed (completely removed) as an earlier branch was mispredicted. (Count)
system.node0.cpus0.branchPred.squashes_0::Return         5424      3.19%      3.45% # Number of branches that got squashed (completely removed) as an earlier branch was mispredicted. (Count)
system.node0.cpus0.branchPred.squashes_0::CallDirect         6208      3.65%      7.10% # Number of branches that got squashed (completely removed) as an earlier branch was mispredicted. (Count)
system.node0.cpus0.branchPred.squashes_0::CallIndirect          361      0.21%      7.31% # Number of branches that got squashed (completely removed) as an earlier branch was mispredicted. (Count)
system.node0.cpus0.branchPred.squashes_0::DirectCond       146483     86.18%     93.49% # Number of branches that got squashed (completely removed) as an earlier branch was mispredicted. (Count)
system.node0.cpus0.branchPred.squashes_0::DirectUncond         5134      3.02%     96.51% # Number of branches that got squashed (completely removed) as an earlier branch was mispredicted. (Count)
system.node0.cpus0.branchPred.squashes_0::IndirectCond            0      0.00%     96.51% # Number of branches that got squashed (completely removed) as an earlier branch was mispredicted. (Count)
system.node0.cpus0.branchPred.squashes_0::IndirectUncond         5934      3.49%    100.00% # Number of branches that got squashed (completely removed) as an earlier branch was mispredicted. (Count)
system.node0.cpus0.branchPred.squashes_0::total       169978                       # Number of branches that got squashed (completely removed) as an earlier branch was mispredicted. (Count)
system.node0.cpus0.branchPred.corrected_0::NoBranch           59      0.10%      0.10% # Number of branches that got corrected but not yet commited. Branches get corrected by decode or after execute. Also a branch misprediction can be detected out-of-order. Therefore, a corrected branch might not end up beeing committed in case an even earlier branch was mispredicted (Count)
system.node0.cpus0.branchPred.corrected_0::Return           10      0.02%      0.12% # Number of branches that got corrected but not yet commited. Branches get corrected by decode or after execute. Also a branch misprediction can be detected out-of-order. Therefore, a corrected branch might not end up beeing committed in case an even earlier branch was mispredicted (Count)
system.node0.cpus0.branchPred.corrected_0::CallDirect         1543      2.73%      2.85% # Number of branches that got corrected but not yet commited. Branches get corrected by decode or after execute. Also a branch misprediction can be detected out-of-order. Therefore, a corrected branch might not end up beeing committed in case an even earlier branch was mispredicted (Count)
system.node0.cpus0.branchPred.corrected_0::CallIndirect          174      0.31%      3.16% # Number of branches that got corrected but not yet commited. Branches get corrected by decode or after execute. Also a branch misprediction can be detected out-of-order. Therefore, a corrected branch might not end up beeing committed in case an even earlier branch was mispredicted (Count)
system.node0.cpus0.branchPred.corrected_0::DirectCond        53442     94.44%     97.60% # Number of branches that got corrected but not yet commited. Branches get corrected by decode or after execute. Also a branch misprediction can be detected out-of-order. Therefore, a corrected branch might not end up beeing committed in case an even earlier branch was mispredicted (Count)
system.node0.cpus0.branchPred.corrected_0::DirectUncond          731      1.29%     98.89% # Number of branches that got corrected but not yet commited. Branches get corrected by decode or after execute. Also a branch misprediction can be detected out-of-order. Therefore, a corrected branch might not end up beeing committed in case an even earlier branch was mispredicted (Count)
system.node0.cpus0.branchPred.corrected_0::IndirectCond            0      0.00%     98.89% # Number of branches that got corrected but not yet commited. Branches get corrected by decode or after execute. Also a branch misprediction can be detected out-of-order. Therefore, a corrected branch might not end up beeing committed in case an even earlier branch was mispredicted (Count)
system.node0.cpus0.branchPred.corrected_0::IndirectUncond          627      1.11%    100.00% # Number of branches that got corrected but not yet commited. Branches get corrected by decode or after execute. Also a branch misprediction can be detected out-of-order. Therefore, a corrected branch might not end up beeing committed in case an even earlier branch was mispredicted (Count)
system.node0.cpus0.branchPred.corrected_0::total        56586                       # Number of branches that got corrected but not yet commited. Branches get corrected by decode or after execute. Also a branch misprediction can be detected out-of-order. Therefore, a corrected branch might not end up beeing committed in case an even earlier branch was mispredicted (Count)
system.node0.cpus0.branchPred.earlyResteers_0::NoBranch            0      0.00%      0.00% # Number of branches that got redirected after decode. (Count)
system.node0.cpus0.branchPred.earlyResteers_0::Return            0      0.00%      0.00% # Number of branches that got redirected after decode. (Count)
system.node0.cpus0.branchPred.earlyResteers_0::CallDirect         1543     66.59%     66.59% # Number of branches that got redirected after decode. (Count)
system.node0.cpus0.branchPred.earlyResteers_0::CallIndirect            0      0.00%     66.59% # Number of branches that got redirected after decode. (Count)
system.node0.cpus0.branchPred.earlyResteers_0::DirectCond           43      1.86%     68.45% # Number of branches that got redirected after decode. (Count)
system.node0.cpus0.branchPred.earlyResteers_0::DirectUncond          731     31.55%    100.00% # Number of branches that got redirected after decode. (Count)
system.node0.cpus0.branchPred.earlyResteers_0::IndirectCond            0      0.00%    100.00% # Number of branches that got redirected after decode. (Count)
system.node0.cpus0.branchPred.earlyResteers_0::IndirectUncond            0      0.00%    100.00% # Number of branches that got redirected after decode. (Count)
system.node0.cpus0.branchPred.earlyResteers_0::total         2317                       # Number of branches that got redirected after decode. (Count)
system.node0.cpus0.branchPred.committed_0::NoBranch           16      0.00%      0.00% # Number of branches finally committed  (Count)
system.node0.cpus0.branchPred.committed_0::Return        30814      1.79%      1.79% # Number of branches finally committed  (Count)
system.node0.cpus0.branchPred.committed_0::CallDirect        30469      1.77%      3.56% # Number of branches finally committed  (Count)
system.node0.cpus0.branchPred.committed_0::CallIndirect          350      0.02%      3.58% # Number of branches finally committed  (Count)
system.node0.cpus0.branchPred.committed_0::DirectCond      1597576     92.80%     96.38% # Number of branches finally committed  (Count)
system.node0.cpus0.branchPred.committed_0::DirectUncond        46796      2.72%     99.09% # Number of branches finally committed  (Count)
system.node0.cpus0.branchPred.committed_0::IndirectCond            0      0.00%     99.09% # Number of branches finally committed  (Count)
system.node0.cpus0.branchPred.committed_0::IndirectUncond        15581      0.91%    100.00% # Number of branches finally committed  (Count)
system.node0.cpus0.branchPred.committed_0::total      1721602                       # Number of branches finally committed  (Count)
system.node0.cpus0.branchPred.mispredicted_0::NoBranch           16      0.03%      0.03% # Number of committed branches that were mispredicted. (Count)
system.node0.cpus0.branchPred.mispredicted_0::Return            0      0.00%      0.03% # Number of committed branches that were mispredicted. (Count)
system.node0.cpus0.branchPred.mispredicted_0::CallDirect         1086      1.97%      2.00% # Number of committed branches that were mispredicted. (Count)
system.node0.cpus0.branchPred.mispredicted_0::CallIndirect          168      0.30%      2.30% # Number of committed branches that were mispredicted. (Count)
system.node0.cpus0.branchPred.mispredicted_0::DirectCond        52878     95.89%     98.19% # Number of committed branches that were mispredicted. (Count)
system.node0.cpus0.branchPred.mispredicted_0::DirectUncond          460      0.83%     99.03% # Number of committed branches that were mispredicted. (Count)
system.node0.cpus0.branchPred.mispredicted_0::IndirectCond            0      0.00%     99.03% # Number of committed branches that were mispredicted. (Count)
system.node0.cpus0.branchPred.mispredicted_0::IndirectUncond          537      0.97%    100.00% # Number of committed branches that were mispredicted. (Count)
system.node0.cpus0.branchPred.mispredicted_0::total        55145                       # Number of committed branches that were mispredicted. (Count)
system.node0.cpus0.branchPred.mispredictDueToPredictor_0::NoBranch           16      0.03%      0.03% # Number of committed branches that were mispredicted by the predictor. (Count)
system.node0.cpus0.branchPred.mispredictDueToPredictor_0::Return            0      0.00%      0.03% # Number of committed branches that were mispredicted by the predictor. (Count)
system.node0.cpus0.branchPred.mispredictDueToPredictor_0::CallDirect            0      0.00%      0.03% # Number of committed branches that were mispredicted by the predictor. (Count)
system.node0.cpus0.branchPred.mispredictDueToPredictor_0::CallIndirect            0      0.00%      0.03% # Number of committed branches that were mispredicted by the predictor. (Count)
system.node0.cpus0.branchPred.mispredictDueToPredictor_0::DirectCond        51300     99.97%    100.00% # Number of committed branches that were mispredicted by the predictor. (Count)
system.node0.cpus0.branchPred.mispredictDueToPredictor_0::DirectUncond            0      0.00%    100.00% # Number of committed branches that were mispredicted by the predictor. (Count)
system.node0.cpus0.branchPred.mispredictDueToPredictor_0::IndirectCond            0      0.00%    100.00% # Number of committed branches that were mispredicted by the predictor. (Count)
system.node0.cpus0.branchPred.mispredictDueToPredictor_0::IndirectUncond            0      0.00%    100.00% # Number of committed branches that were mispredicted by the predictor. (Count)
system.node0.cpus0.branchPred.mispredictDueToPredictor_0::total        51316                       # Number of committed branches that were mispredicted by the predictor. (Count)
system.node0.cpus0.branchPred.mispredictDueToBTBMiss_0::NoBranch            0      0.00%      0.00% # Number of committed branches that were mispredicted because of a BTB miss. (Count)
system.node0.cpus0.branchPred.mispredictDueToBTBMiss_0::Return            0      0.00%      0.00% # Number of committed branches that were mispredicted because of a BTB miss. (Count)
system.node0.cpus0.branchPred.mispredictDueToBTBMiss_0::CallDirect         1086     28.36%     28.36% # Number of committed branches that were mispredicted because of a BTB miss. (Count)
system.node0.cpus0.branchPred.mispredictDueToBTBMiss_0::CallIndirect          168      4.39%     32.75% # Number of committed branches that were mispredicted because of a BTB miss. (Count)
system.node0.cpus0.branchPred.mispredictDueToBTBMiss_0::DirectCond         1578     41.21%     73.96% # Number of committed branches that were mispredicted because of a BTB miss. (Count)
system.node0.cpus0.branchPred.mispredictDueToBTBMiss_0::DirectUncond          460     12.01%     85.98% # Number of committed branches that were mispredicted because of a BTB miss. (Count)
system.node0.cpus0.branchPred.mispredictDueToBTBMiss_0::IndirectCond            0      0.00%     85.98% # Number of committed branches that were mispredicted because of a BTB miss. (Count)
system.node0.cpus0.branchPred.mispredictDueToBTBMiss_0::IndirectUncond          537     14.02%    100.00% # Number of committed branches that were mispredicted because of a BTB miss. (Count)
system.node0.cpus0.branchPred.mispredictDueToBTBMiss_0::total         3829                       # Number of committed branches that were mispredicted because of a BTB miss. (Count)
system.node0.cpus0.branchPred.targetProvider_0::NoTarget       557849     29.49%     29.49% # The component providing the target for taken branches (Count)
system.node0.cpus0.branchPred.targetProvider_0::BTB      1281061     67.72%     97.22% # The component providing the target for taken branches (Count)
system.node0.cpus0.branchPred.targetProvider_0::RAS        36238      1.92%     99.13% # The component providing the target for taken branches (Count)
system.node0.cpus0.branchPred.targetProvider_0::Indirect        16433      0.87%    100.00% # The component providing the target for taken branches (Count)
system.node0.cpus0.branchPred.targetProvider_0::total      1891581                       # The component providing the target for taken branches (Count)
system.node0.cpus0.branchPred.targetWrong_0::NoBranch        10639     18.91%     18.91% # Number of branches where the target was incorrect or not available at prediction time. (Count)
system.node0.cpus0.branchPred.targetWrong_0::Return        45461     80.81%     99.72% # Number of branches where the target was incorrect or not available at prediction time. (Count)
system.node0.cpus0.branchPred.targetWrong_0::CallDirect           10      0.02%     99.73% # Number of branches where the target was incorrect or not available at prediction time. (Count)
system.node0.cpus0.branchPred.targetWrong_0::CallIndirect          150      0.27%    100.00% # Number of branches where the target was incorrect or not available at prediction time. (Count)
system.node0.cpus0.branchPred.targetWrong_0::DirectCond            0      0.00%    100.00% # Number of branches where the target was incorrect or not available at prediction time. (Count)
system.node0.cpus0.branchPred.targetWrong_0::DirectUncond            0      0.00%    100.00% # Number of branches where the target was incorrect or not available at prediction time. (Count)
system.node0.cpus0.branchPred.targetWrong_0::IndirectCond            0      0.00%    100.00% # Number of branches where the target was incorrect or not available at prediction time. (Count)
system.node0.cpus0.branchPred.targetWrong_0::IndirectUncond            0      0.00%    100.00% # Number of branches where the target was incorrect or not available at prediction time. (Count)
system.node0.cpus0.branchPred.targetWrong_0::total        56260                       # Number of branches where the target was incorrect or not available at prediction time. (Count)
system.node0.cpus0.branchPred.condPredicted      1744060                       # Number of conditional branches predicted (Count)
system.node0.cpus0.branchPred.condPredictedTaken      1199277                       # Number of conditional branches predicted as taken (Count)
system.node0.cpus0.branchPred.condIncorrect        55145                       # Number of conditional branches incorrect (Count)
system.node0.cpus0.branchPred.predTakenBTBMiss         3108                       # Number of branches predicted taken but missed in BTB (Count)
system.node0.cpus0.branchPred.BTBLookups      1891581                       # Number of BTB lookups (Count)
system.node0.cpus0.branchPred.BTBUpdates        10217                       # Number of BTB updates (Count)
system.node0.cpus0.branchPred.BTBHits         1563630                       # Number of BTB hits (Count)
system.node0.cpus0.branchPred.BTBHitRatio     0.826626                       # BTB Hit Ratio (Ratio)
system.node0.cpus0.branchPred.BTBMispredicted         4054                       # Number BTB mispredictions. No target found or target wrong (Count)
system.node0.cpus0.branchPred.indirectLookups        22226                       # Number of indirect predictor lookups. (Count)
system.node0.cpus0.branchPred.indirectHits        16433                       # Number of indirect target hits. (Count)
system.node0.cpus0.branchPred.indirectMisses         5793                       # Number of indirect misses. (Count)
system.node0.cpus0.branchPred.indirectMispredicted            0                       # Number of mispredicted indirect branches. (Count)
system.node0.cpus0.branchPred.btb.lookups::NoBranch          450      0.02%      0.02% # Number of BTB lookups (Count)
system.node0.cpus0.branchPred.btb.lookups::Return        36238      1.92%      1.94% # Number of BTB lookups (Count)
system.node0.cpus0.branchPred.btb.lookups::CallDirect        36677      1.94%      3.88% # Number of BTB lookups (Count)
system.node0.cpus0.branchPred.btb.lookups::CallIndirect          711      0.04%      3.92% # Number of BTB lookups (Count)
system.node0.cpus0.branchPred.btb.lookups::DirectCond      1744060     92.20%     96.12% # Number of BTB lookups (Count)
system.node0.cpus0.branchPred.btb.lookups::DirectUncond        51930      2.75%     98.86% # Number of BTB lookups (Count)
system.node0.cpus0.branchPred.btb.lookups::IndirectCond            0      0.00%     98.86% # Number of BTB lookups (Count)
system.node0.cpus0.branchPred.btb.lookups::IndirectUncond        21515      1.14%    100.00% # Number of BTB lookups (Count)
system.node0.cpus0.branchPred.btb.lookups::total      1891581                       # Number of BTB lookups (Count)
system.node0.cpus0.branchPred.btb.misses::NoBranch           88      0.03%      0.03% # Number of BTB misses (Count)
system.node0.cpus0.branchPred.btb.misses::Return        36238     11.05%     11.08% # Number of BTB misses (Count)
system.node0.cpus0.branchPred.btb.misses::CallDirect         2115      0.64%     11.72% # Number of BTB misses (Count)
system.node0.cpus0.branchPred.btb.misses::CallIndirect          711      0.22%     11.94% # Number of BTB misses (Count)
system.node0.cpus0.branchPred.btb.misses::DirectCond       266238     81.18%     93.12% # Number of BTB misses (Count)
system.node0.cpus0.branchPred.btb.misses::DirectUncond         1046      0.32%     93.44% # Number of BTB misses (Count)
system.node0.cpus0.branchPred.btb.misses::IndirectCond            0      0.00%     93.44% # Number of BTB misses (Count)
system.node0.cpus0.branchPred.btb.misses::IndirectUncond        21515      6.56%    100.00% # Number of BTB misses (Count)
system.node0.cpus0.branchPred.btb.misses::total       327951                       # Number of BTB misses (Count)
system.node0.cpus0.branchPred.btb.updates::NoBranch           59      0.58%      0.58% # Number of BTB updates (Count)
system.node0.cpus0.branchPred.btb.updates::Return            0      0.00%      0.58% # Number of BTB updates (Count)
system.node0.cpus0.branchPred.btb.updates::CallDirect         1543     15.10%     15.68% # Number of BTB updates (Count)
system.node0.cpus0.branchPred.btb.updates::CallIndirect            0      0.00%     15.68% # Number of BTB updates (Count)
system.node0.cpus0.branchPred.btb.updates::DirectCond         7884     77.17%     92.85% # Number of BTB updates (Count)
system.node0.cpus0.branchPred.btb.updates::DirectUncond          731      7.15%    100.00% # Number of BTB updates (Count)
system.node0.cpus0.branchPred.btb.updates::IndirectCond            0      0.00%    100.00% # Number of BTB updates (Count)
system.node0.cpus0.branchPred.btb.updates::IndirectUncond            0      0.00%    100.00% # Number of BTB updates (Count)
system.node0.cpus0.branchPred.btb.updates::total        10217                       # Number of BTB updates (Count)
system.node0.cpus0.branchPred.btb.mispredict::NoBranch           59      0.58%      0.58% # Number of BTB mispredictions. No target found or target wrong. (Count)
system.node0.cpus0.branchPred.btb.mispredict::Return            0      0.00%      0.58% # Number of BTB mispredictions. No target found or target wrong. (Count)
system.node0.cpus0.branchPred.btb.mispredict::CallDirect         1543     15.10%     15.68% # Number of BTB mispredictions. No target found or target wrong. (Count)
system.node0.cpus0.branchPred.btb.mispredict::CallIndirect            0      0.00%     15.68% # Number of BTB mispredictions. No target found or target wrong. (Count)
system.node0.cpus0.branchPred.btb.mispredict::DirectCond         7884     77.17%     92.85% # Number of BTB mispredictions. No target found or target wrong. (Count)
system.node0.cpus0.branchPred.btb.mispredict::DirectUncond          731      7.15%    100.00% # Number of BTB mispredictions. No target found or target wrong. (Count)
system.node0.cpus0.branchPred.btb.mispredict::IndirectCond            0      0.00%    100.00% # Number of BTB mispredictions. No target found or target wrong. (Count)
system.node0.cpus0.branchPred.btb.mispredict::IndirectUncond            0      0.00%    100.00% # Number of BTB mispredictions. No target found or target wrong. (Count)
system.node0.cpus0.branchPred.btb.mispredict::total        10217                       # Number of BTB mispredictions. No target found or target wrong. (Count)
system.node0.cpus0.branchPred.btb.power_state.pwrStateResidencyTicks::UNDEFINED   3640370500                       # Cumulative time (in ticks) in various power states (Tick)
system.node0.cpus0.branchPred.indirectBranchPred.lookups        22226                       # Number of lookups (Count)
system.node0.cpus0.branchPred.indirectBranchPred.hits        16433                       # Number of hits of a tag (Count)
system.node0.cpus0.branchPred.indirectBranchPred.misses         5793                       # Number of misses (Count)
system.node0.cpus0.branchPred.indirectBranchPred.targetRecords          801                       # Number of targets that where recorded/installed in the cache (Count)
system.node0.cpus0.branchPred.indirectBranchPred.indirectRecords        23027                       # Number of indirect branches/calls recorded in the indirect hist (Count)
system.node0.cpus0.branchPred.indirectBranchPred.speculativeOverflows           11                       # Number of times more than the allowed capacity for speculative branches/calls where in flight and destroy the path history (Count)
system.node0.cpus0.branchPred.ras.pushes        42812                       # Number of times a PC was pushed onto the RAS (Count)
system.node0.cpus0.branchPred.ras.pops          42807                       # Number of times a PC was poped from the RAS (Count)
system.node0.cpus0.branchPred.ras.squashes        11993                       # Number of times the stack operation was squashed due to wrong speculation. (Count)
system.node0.cpus0.branchPred.ras.used          30814                       # Number of times the RAS is the provider (Count)
system.node0.cpus0.branchPred.ras.correct        30814                       # Number of times the RAS is the provider and the prediction is correct (Count)
system.node0.cpus0.branchPred.ras.incorrect            0                       # Number of times the RAS is the provider and the prediction is wrong (Count)
system.node0.cpus0.clk_domain.clock               250                       # Clock period in ticks (Tick)
system.node0.cpus0.clk_domain.voltage_domain.voltage            1                       # Voltage in Volts (Volt)
system.node0.cpus0.commit.status::running     14090521     99.93%     99.93% # Number of cycles commit is running (Cycle)
system.node0.cpus0.commit.status::idle              1      0.00%     99.93% # Number of cycles commit is idle (Cycle)
system.node0.cpus0.commit.status::trapPending         9450      0.07%    100.00% # Number of cycles commit is processing a trap (Cycle)
system.node0.cpus0.commit.commitSquashedInsts      1580929                       # The number of squashed insts skipped by commit (Count)
system.node0.cpus0.commit.commitNonSpecStalls         1963                       # The number of times commit has been forced to stall to communicate backwards (Count)
system.node0.cpus0.commit.branchMispredicts        54327                       # The number of times a branch was mispredicted (Count)
system.node0.cpus0.commit.numCommittedDist::samples     14044420                       # Number of insts commited each cycle (Count)
system.node0.cpus0.commit.numCommittedDist::mean     3.001393                       # Number of insts commited each cycle (Count)
system.node0.cpus0.commit.numCommittedDist::stdev     3.419415                       # Number of insts commited each cycle (Count)
system.node0.cpus0.commit.numCommittedDist::underflows            0      0.00%      0.00% # Number of insts commited each cycle (Count)
system.node0.cpus0.commit.numCommittedDist::0      6260166     44.57%     44.57% # Number of insts commited each cycle (Count)
system.node0.cpus0.commit.numCommittedDist::1      1007703      7.18%     51.75% # Number of insts commited each cycle (Count)
system.node0.cpus0.commit.numCommittedDist::2      1199099      8.54%     60.29% # Number of insts commited each cycle (Count)
system.node0.cpus0.commit.numCommittedDist::3       404256      2.88%     63.17% # Number of insts commited each cycle (Count)
system.node0.cpus0.commit.numCommittedDist::4       383838      2.73%     65.90% # Number of insts commited each cycle (Count)
system.node0.cpus0.commit.numCommittedDist::5       411803      2.93%     68.83% # Number of insts commited each cycle (Count)
system.node0.cpus0.commit.numCommittedDist::6       448766      3.20%     72.03% # Number of insts commited each cycle (Count)
system.node0.cpus0.commit.numCommittedDist::7       183123      1.30%     73.33% # Number of insts commited each cycle (Count)
system.node0.cpus0.commit.numCommittedDist::8      3745666     26.67%    100.00% # Number of insts commited each cycle (Count)
system.node0.cpus0.commit.numCommittedDist::overflows            0      0.00%    100.00% # Number of insts commited each cycle (Count)
system.node0.cpus0.commit.numCommittedDist::min_value            0                       # Number of insts commited each cycle (Count)
system.node0.cpus0.commit.numCommittedDist::max_value            8                       # Number of insts commited each cycle (Count)
system.node0.cpus0.commit.numCommittedDist::total     14044420                       # Number of insts commited each cycle (Count)
system.node0.cpus0.commit.amos                      0                       # Number of atomic instructions committed (Count)
system.node0.cpus0.commit.membars                1286                       # Number of memory barriers committed (Count)
system.node0.cpus0.commit.committedInstType_0::No_OpClass        92975      0.22%      0.22% # Class of committed instruction (Count)
system.node0.cpus0.commit.committedInstType_0::IntAlu     14448981     34.28%     34.50% # Class of committed instruction (Count)
system.node0.cpus0.commit.committedInstType_0::IntMult       234084      0.56%     35.05% # Class of committed instruction (Count)
system.node0.cpus0.commit.committedInstType_0::IntDiv         6900      0.02%     35.07% # Class of committed instruction (Count)
system.node0.cpus0.commit.committedInstType_0::FloatAdd       296725      0.70%     35.77% # Class of committed instruction (Count)
system.node0.cpus0.commit.committedInstType_0::FloatCmp            0      0.00%     35.77% # Class of committed instruction (Count)
system.node0.cpus0.commit.committedInstType_0::FloatCvt            0      0.00%     35.77% # Class of committed instruction (Count)
system.node0.cpus0.commit.committedInstType_0::FloatMult            0      0.00%     35.77% # Class of committed instruction (Count)
system.node0.cpus0.commit.committedInstType_0::FloatMultAcc            0      0.00%     35.77% # Class of committed instruction (Count)
system.node0.cpus0.commit.committedInstType_0::FloatDiv            0      0.00%     35.77% # Class of committed instruction (Count)
system.node0.cpus0.commit.committedInstType_0::FloatMisc            0      0.00%     35.77% # Class of committed instruction (Count)
system.node0.cpus0.commit.committedInstType_0::FloatSqrt            0      0.00%     35.77% # Class of committed instruction (Count)
system.node0.cpus0.commit.committedInstType_0::SimdAdd          272      0.00%     35.77% # Class of committed instruction (Count)
system.node0.cpus0.commit.committedInstType_0::SimdAddAcc            0      0.00%     35.77% # Class of committed instruction (Count)
system.node0.cpus0.commit.committedInstType_0::SimdAlu       272498      0.65%     36.42% # Class of committed instruction (Count)
system.node0.cpus0.commit.committedInstType_0::SimdCmp           16      0.00%     36.42% # Class of committed instruction (Count)
system.node0.cpus0.commit.committedInstType_0::SimdCvt         1372      0.00%     36.42% # Class of committed instruction (Count)
system.node0.cpus0.commit.committedInstType_0::SimdMisc       150352      0.36%     36.78% # Class of committed instruction (Count)
system.node0.cpus0.commit.committedInstType_0::SimdMult            0      0.00%     36.78% # Class of committed instruction (Count)
system.node0.cpus0.commit.committedInstType_0::SimdMultAcc            0      0.00%     36.78% # Class of committed instruction (Count)
system.node0.cpus0.commit.committedInstType_0::SimdMatMultAcc            0      0.00%     36.78% # Class of committed instruction (Count)
system.node0.cpus0.commit.committedInstType_0::SimdShift          918      0.00%     36.78% # Class of committed instruction (Count)
system.node0.cpus0.commit.committedInstType_0::SimdShiftAcc            0      0.00%     36.78% # Class of committed instruction (Count)
system.node0.cpus0.commit.committedInstType_0::SimdDiv            0      0.00%     36.78% # Class of committed instruction (Count)
system.node0.cpus0.commit.committedInstType_0::SimdSqrt            0      0.00%     36.78% # Class of committed instruction (Count)
system.node0.cpus0.commit.committedInstType_0::SimdFloatAdd      8763373     20.79%     57.57% # Class of committed instruction (Count)
system.node0.cpus0.commit.committedInstType_0::SimdFloatAlu            0      0.00%     57.57% # Class of committed instruction (Count)
system.node0.cpus0.commit.committedInstType_0::SimdFloatCmp       139268      0.33%     57.90% # Class of committed instruction (Count)
system.node0.cpus0.commit.committedInstType_0::SimdFloatCvt       209212      0.50%     58.40% # Class of committed instruction (Count)
system.node0.cpus0.commit.committedInstType_0::SimdFloatDiv           11      0.00%     58.40% # Class of committed instruction (Count)
system.node0.cpus0.commit.committedInstType_0::SimdFloatMisc            0      0.00%     58.40% # Class of committed instruction (Count)
system.node0.cpus0.commit.committedInstType_0::SimdFloatMult      2306611      5.47%     63.87% # Class of committed instruction (Count)
system.node0.cpus0.commit.committedInstType_0::SimdFloatMultAcc            0      0.00%     63.87% # Class of committed instruction (Count)
system.node0.cpus0.commit.committedInstType_0::SimdFloatMatMultAcc            0      0.00%     63.87% # Class of committed instruction (Count)
system.node0.cpus0.commit.committedInstType_0::SimdFloatSqrt            4      0.00%     63.87% # Class of committed instruction (Count)
system.node0.cpus0.commit.committedInstType_0::SimdReduceAdd            0      0.00%     63.87% # Class of committed instruction (Count)
system.node0.cpus0.commit.committedInstType_0::SimdReduceAlu            0      0.00%     63.87% # Class of committed instruction (Count)
system.node0.cpus0.commit.committedInstType_0::SimdReduceCmp            0      0.00%     63.87% # Class of committed instruction (Count)
system.node0.cpus0.commit.committedInstType_0::SimdFloatReduceAdd            0      0.00%     63.87% # Class of committed instruction (Count)
system.node0.cpus0.commit.committedInstType_0::SimdFloatReduceCmp            0      0.00%     63.87% # Class of committed instruction (Count)
system.node0.cpus0.commit.committedInstType_0::SimdAes            0      0.00%     63.87% # Class of committed instruction (Count)
system.node0.cpus0.commit.committedInstType_0::SimdAesMix            0      0.00%     63.87% # Class of committed instruction (Count)
system.node0.cpus0.commit.committedInstType_0::SimdSha1Hash            0      0.00%     63.87% # Class of committed instruction (Count)
system.node0.cpus0.commit.committedInstType_0::SimdSha1Hash2            0      0.00%     63.87% # Class of committed instruction (Count)
system.node0.cpus0.commit.committedInstType_0::SimdSha256Hash            0      0.00%     63.87% # Class of committed instruction (Count)
system.node0.cpus0.commit.committedInstType_0::SimdSha256Hash2            0      0.00%     63.87% # Class of committed instruction (Count)
system.node0.cpus0.commit.committedInstType_0::SimdShaSigma2            0      0.00%     63.87% # Class of committed instruction (Count)
system.node0.cpus0.commit.committedInstType_0::SimdShaSigma3            0      0.00%     63.87% # Class of committed instruction (Count)
system.node0.cpus0.commit.committedInstType_0::SimdSha3            0      0.00%     63.87% # Class of committed instruction (Count)
system.node0.cpus0.commit.committedInstType_0::SimdSm4e            0      0.00%     63.87% # Class of committed instruction (Count)
system.node0.cpus0.commit.committedInstType_0::SimdCrc            0      0.00%     63.87% # Class of committed instruction (Count)
system.node0.cpus0.commit.committedInstType_0::SimdPredAlu            0      0.00%     63.87% # Class of committed instruction (Count)
system.node0.cpus0.commit.committedInstType_0::SimdDotProd            0      0.00%     63.87% # Class of committed instruction (Count)
system.node0.cpus0.commit.committedInstType_0::Matrix            0      0.00%     63.87% # Class of committed instruction (Count)
system.node0.cpus0.commit.committedInstType_0::MatrixMov            0      0.00%     63.87% # Class of committed instruction (Count)
system.node0.cpus0.commit.committedInstType_0::MatrixOP            0      0.00%     63.87% # Class of committed instruction (Count)
system.node0.cpus0.commit.committedInstType_0::MemRead      1188739      2.82%     66.69% # Class of committed instruction (Count)
system.node0.cpus0.commit.committedInstType_0::MemWrite       425134      1.01%     67.70% # Class of committed instruction (Count)
system.node0.cpus0.commit.committedInstType_0::FloatMemRead     10747232     25.50%     93.20% # Class of committed instruction (Count)
[...]
system.node1.mem_ctrl.avgRdBWSys           0.00000000                       # Average system read bandwidth in Byte/s ((Byte/Second))
system.node1.mem_ctrl.avgWrBWSys           0.00000000                       # Average system write bandwidth in Byte/s ((Byte/Second))
system.node1.mem_ctrl.totGap                        0                       # Total gap between requests (Tick)
system.node1.mem_ctrl.avgGap                      nan                       # Average gap between requests ((Tick/Count))
system.node1.mem_ctrl.dram.readBursts               0                       # Number of DRAM read bursts (Count)
system.node1.mem_ctrl.dram.writeBursts              0                       # Number of DRAM write bursts (Count)
system.node1.mem_ctrl.dram.perBankRdBursts::0            0                       # Per bank write bursts (Count)
system.node1.mem_ctrl.dram.perBankRdBursts::1            0                       # Per bank write bursts (Count)
system.node1.mem_ctrl.dram.perBankRdBursts::2            0                       # Per bank write bursts (Count)
system.node1.mem_ctrl.dram.perBankRdBursts::3            0                       # Per bank write bursts (Count)
system.node1.mem_ctrl.dram.perBankRdBursts::4            0                       # Per bank write bursts (Count)
system.node1.mem_ctrl.dram.perBankRdBursts::5            0                       # Per bank write bursts (Count)
system.node1.mem_ctrl.dram.perBankRdBursts::6            0                       # Per bank write bursts (Count)
system.node1.mem_ctrl.dram.perBankRdBursts::7            0                       # Per bank write bursts (Count)
system.node1.mem_ctrl.dram.perBankWrBursts::0            0                       # Per bank write bursts (Count)
system.node1.mem_ctrl.dram.perBankWrBursts::1            0                       # Per bank write bursts (Count)
system.node1.mem_ctrl.dram.perBankWrBursts::2            0                       # Per bank write bursts (Count)
system.node1.mem_ctrl.dram.perBankWrBursts::3            0                       # Per bank write bursts (Count)
system.node1.mem_ctrl.dram.perBankWrBursts::4            0                       # Per bank write bursts (Count)
system.node1.mem_ctrl.dram.perBankWrBursts::5            0                       # Per bank write bursts (Count)
system.node1.mem_ctrl.dram.perBankWrBursts::6            0                       # Per bank write bursts (Count)
system.node1.mem_ctrl.dram.perBankWrBursts::7            0                       # Per bank write bursts (Count)
system.node1.mem_ctrl.dram.totQLat                  0                       # Total ticks spent queuing (Tick)
system.node1.mem_ctrl.dram.totBusLat                0                       # Total ticks spent in databus transfers (Tick)
system.node1.mem_ctrl.dram.totMemAccLat             0                       # Total ticks spent from burst creation until serviced by the DRAM (Tick)
system.node1.mem_ctrl.dram.avgQLat                nan                       # Average queueing delay per DRAM burst ((Tick/Count))
system.node1.mem_ctrl.dram.avgBusLat              nan                       # Average bus latency per DRAM burst ((Tick/Count))
system.node1.mem_ctrl.dram.avgMemAccLat           nan                       # Average memory access latency per DRAM burst ((Tick/Count))
system.node1.mem_ctrl.dram.readRowHits              0                       # Number of row buffer hits during reads (Count)
system.node1.mem_ctrl.dram.writeRowHits             0                       # Number of row buffer hits during writes (Count)
system.node1.mem_ctrl.dram.readRowHitRate          nan                       # Row buffer hit rate for reads (Ratio)
system.node1.mem_ctrl.dram.writeRowHitRate          nan                       # Row buffer hit rate for writes (Ratio)
system.node1.mem_ctrl.dram.dramBytesRead            0                       # Total bytes read (Byte)
system.node1.mem_ctrl.dram.dramBytesWritten            0                       # Total bytes written (Byte)
system.node1.mem_ctrl.dram.avgRdBW                  0                       # Average DRAM read bandwidth in MiBytes/s ((Byte/Second))
system.node1.mem_ctrl.dram.avgWrBW                  0                       # Average DRAM write bandwidth in MiBytes/s ((Byte/Second))
system.node1.mem_ctrl.dram.peakBW            12800.00                       # Theoretical peak bandwidth in MiByte/s ((Byte/Second))
system.node1.mem_ctrl.dram.busUtil               0.00                       # Data bus utilization in percentage (Ratio)
system.node1.mem_ctrl.dram.busUtilRead           0.00                       # Data bus utilization in percentage for reads (Ratio)
system.node1.mem_ctrl.dram.busUtilWrite          0.00                       # Data bus utilization in percentage for writes (Ratio)
system.node1.mem_ctrl.dram.pageHitRate            nan                       # Row buffer hit rate, read and write combined (Ratio)
system.node1.mem_ctrl.dram.power_state.pwrStateResidencyTicks::UNDEFINED   3640370500                       # Cumulative time (in ticks) in various power states (Tick)
system.node1.mem_ctrl.dram.rank0.actEnergy            0                       # Energy for activate commands per rank (pJ) (Joule)
system.node1.mem_ctrl.dram.rank0.preEnergy            0                       # Energy for precharge commands per rank (pJ) (Joule)
system.node1.mem_ctrl.dram.rank0.readEnergy            0                       # Energy for read commands per rank (pJ) (Joule)
system.node1.mem_ctrl.dram.rank0.writeEnergy            0                       # Energy for write commands per rank (pJ) (Joule)
system.node1.mem_ctrl.dram.rank0.refreshEnergy 287036880.000000                       # Energy for refresh commands per rank (pJ) (Joule)
system.node1.mem_ctrl.dram.rank0.actBackEnergy     52439430                       # Energy for active background per rank (pJ) (Joule)
system.node1.mem_ctrl.dram.rank0.preBackEnergy   1353743040                       # Energy for precharge background per rank (pJ) (Joule)
system.node1.mem_ctrl.dram.rank0.actPowerDownEnergy            0                       # Energy for active power-down per rank (pJ) (Joule)
system.node1.mem_ctrl.dram.rank0.prePowerDownEnergy            0                       # Energy for precharge power-down per rank (pJ) (Joule)
system.node1.mem_ctrl.dram.rank0.selfRefreshEnergy            0                       # Energy for self refresh per rank (pJ) (Joule)
system.node1.mem_ctrl.dram.rank0.totalEnergy   1693219350                       # Total energy per rank (pJ) (Joule)
system.node1.mem_ctrl.dram.rank0.averagePower   465.122808                       # Core power per rank (mW) (Watt)
system.node1.mem_ctrl.dram.rank0.totalIdleTime            0                       # Total Idle time Per DRAM Rank (Tick)
system.node1.mem_ctrl.dram.rank0.pwrStateTime::IDLE   3518950500                       # Time in different power states (Tick)
system.node1.mem_ctrl.dram.rank0.pwrStateTime::REF    121420000                       # Time in different power states (Tick)
system.node1.mem_ctrl.dram.rank0.pwrStateTime::SREF            0                       # Time in different power states (Tick)
system.node1.mem_ctrl.dram.rank0.pwrStateTime::PRE_PDN            0                       # Time in different power states (Tick)
system.node1.mem_ctrl.dram.rank0.pwrStateTime::ACT            0                       # Time in different power states (Tick)
system.node1.mem_ctrl.dram.rank0.pwrStateTime::ACT_PDN            0                       # Time in different power states (Tick)
system.node1.mem_ctrl.power_state.pwrStateResidencyTicks::UNDEFINED   3640370500                       # Cumulative time (in ticks) in various power states (Tick)
system.node1.xbar.transDist::ReadResp           11104                       # Transaction distribution (Count)
system.node1.xbar.transDist::ReadExReq           1384                       # Transaction distribution (Count)
system.node1.xbar.transDist::ReadExResp          1384                       # Transaction distribution (Count)
system.node1.xbar.transDist::ReadSharedReq        11104                       # Transaction distribution (Count)
system.node1.xbar.pktCount_system.node1.cpus0.l2cache.mem_side_port::system.bridge1.cpu_side_port         3122                       # Packet count per connected requestor and responder (Count)
system.node1.xbar.pktCount_system.node1.cpus0.l2cache.mem_side_port::total         3122                       # Packet count per connected requestor and responder (Count)
system.node1.xbar.pktCount_system.node1.cpus1.l2cache.mem_side_port::system.bridge1.cpu_side_port         3122                       # Packet count per connected requestor and responder (Count)
system.node1.xbar.pktCount_system.node1.cpus1.l2cache.mem_side_port::total         3122                       # Packet count per connected requestor and responder (Count)
system.node1.xbar.pktCount_system.node1.cpus2.l2cache.mem_side_port::system.bridge1.cpu_side_port         3124                       # Packet count per connected requestor and responder (Count)
system.node1.xbar.pktCount_system.node1.cpus2.l2cache.mem_side_port::total         3124                       # Packet count per connected requestor and responder (Count)
system.node1.xbar.pktCount_system.node1.cpus3.l2cache.mem_side_port::system.bridge1.cpu_side_port         3124                       # Packet count per connected requestor and responder (Count)
system.node1.xbar.pktCount_system.node1.cpus3.l2cache.mem_side_port::total         3124                       # Packet count per connected requestor and responder (Count)
system.node1.xbar.pktCount_system.node1.cpus4.l2cache.mem_side_port::system.bridge1.cpu_side_port         3120                       # Packet count per connected requestor and responder (Count)
system.node1.xbar.pktCount_system.node1.cpus4.l2cache.mem_side_port::total         3120                       # Packet count per connected requestor and responder (Count)
system.node1.xbar.pktCount_system.node1.cpus5.l2cache.mem_side_port::system.bridge1.cpu_side_port         3122                       # Packet count per connected requestor and responder (Count)
system.node1.xbar.pktCount_system.node1.cpus5.l2cache.mem_side_port::total         3122                       # Packet count per connected requestor and responder (Count)
system.node1.xbar.pktCount_system.node1.cpus6.l2cache.mem_side_port::system.bridge1.cpu_side_port         3122                       # Packet count per connected requestor and responder (Count)
system.node1.xbar.pktCount_system.node1.cpus6.l2cache.mem_side_port::total         3122                       # Packet count per connected requestor and responder (Count)
system.node1.xbar.pktCount_system.node1.cpus7.l2cache.mem_side_port::system.bridge1.cpu_side_port         3120                       # Packet count per connected requestor and responder (Count)
system.node1.xbar.pktCount_system.node1.cpus7.l2cache.mem_side_port::total         3120                       # Packet count per connected requestor and responder (Count)
system.node1.xbar.pktCount::total               24976                       # Packet count per connected requestor and responder (Count)
system.node1.xbar.pktSize_system.node1.cpus0.l2cache.mem_side_port::system.bridge1.cpu_side_port        99904                       # Cumulative packet size per connected requestor and responder (Byte)
system.node1.xbar.pktSize_system.node1.cpus0.l2cache.mem_side_port::total        99904                       # Cumulative packet size per connected requestor and responder (Byte)
system.node1.xbar.pktSize_system.node1.cpus1.l2cache.mem_side_port::system.bridge1.cpu_side_port        99904                       # Cumulative packet size per connected requestor and responder (Byte)
system.node1.xbar.pktSize_system.node1.cpus1.l2cache.mem_side_port::total        99904                       # Cumulative packet size per connected requestor and responder (Byte)
system.node1.xbar.pktSize_system.node1.cpus2.l2cache.mem_side_port::system.bridge1.cpu_side_port        99968                       # Cumulative packet size per connected requestor and responder (Byte)
system.node1.xbar.pktSize_system.node1.cpus2.l2cache.mem_side_port::total        99968                       # Cumulative packet size per connected requestor and responder (Byte)
system.node1.xbar.pktSize_system.node1.cpus3.l2cache.mem_side_port::system.bridge1.cpu_side_port        99968                       # Cumulative packet size per connected requestor and responder (Byte)
system.node1.xbar.pktSize_system.node1.cpus3.l2cache.mem_side_port::total        99968                       # Cumulative packet size per connected requestor and responder (Byte)
system.node1.xbar.pktSize_system.node1.cpus4.l2cache.mem_side_port::system.bridge1.cpu_side_port        99840                       # Cumulative packet size per connected requestor and responder (Byte)
system.node1.xbar.pktSize_system.node1.cpus4.l2cache.mem_side_port::total        99840                       # Cumulative packet size per connected requestor and responder (Byte)
system.node1.xbar.pktSize_system.node1.cpus5.l2cache.mem_side_port::system.bridge1.cpu_side_port        99904                       # Cumulative packet size per connected requestor and responder (Byte)
system.node1.xbar.pktSize_system.node1.cpus5.l2cache.mem_side_port::total        99904                       # Cumulative packet size per connected requestor and responder (Byte)
system.node1.xbar.pktSize_system.node1.cpus6.l2cache.mem_side_port::system.bridge1.cpu_side_port        99904                       # Cumulative packet size per connected requestor and responder (Byte)
system.node1.xbar.pktSize_system.node1.cpus6.l2cache.mem_side_port::total        99904                       # Cumulative packet size per connected requestor and responder (Byte)
system.node1.xbar.pktSize_system.node1.cpus7.l2cache.mem_side_port::system.bridge1.cpu_side_port        99840                       # Cumulative packet size per connected requestor and responder (Byte)
system.node1.xbar.pktSize_system.node1.cpus7.l2cache.mem_side_port::total        99840                       # Cumulative packet size per connected requestor and responder (Byte)
system.node1.xbar.pktSize::total               799232                       # Cumulative packet size per connected requestor and responder (Byte)
system.node1.xbar.snoops                            0                       # Total snoops (Count)
system.node1.xbar.snoopTraffic                      0                       # Total snoop traffic (Byte)
system.node1.xbar.snoopFanout::samples          17451                       # Request fanout histogram (Count)
system.node1.xbar.snoopFanout::mean                 0                       # Request fanout histogram (Count)
system.node1.xbar.snoopFanout::stdev                0                       # Request fanout histogram (Count)
system.node1.xbar.snoopFanout::underflows            0      0.00%      0.00% # Request fanout histogram (Count)
system.node1.xbar.snoopFanout::0                17451    100.00%    100.00% # Request fanout histogram (Count)
system.node1.xbar.snoopFanout::1                    0      0.00%    100.00% # Request fanout histogram (Count)
system.node1.xbar.snoopFanout::2                    0      0.00%    100.00% # Request fanout histogram (Count)
system.node1.xbar.snoopFanout::3                    0      0.00%    100.00% # Request fanout histogram (Count)
system.node1.xbar.snoopFanout::4                    0      0.00%    100.00% # Request fanout histogram (Count)
system.node1.xbar.snoopFanout::5                    0      0.00%    100.00% # Request fanout histogram (Count)
system.node1.xbar.snoopFanout::6                    0      0.00%    100.00% # Request fanout histogram (Count)
system.node1.xbar.snoopFanout::7                    0      0.00%    100.00% # Request fanout histogram (Count)
system.node1.xbar.snoopFanout::8                    0      0.00%    100.00% # Request fanout histogram (Count)
system.node1.xbar.snoopFanout::overflows            0      0.00%    100.00% # Request fanout histogram (Count)
system.node1.xbar.snoopFanout::min_value            0                       # Request fanout histogram (Count)
system.node1.xbar.snoopFanout::max_value            0                       # Request fanout histogram (Count)
system.node1.xbar.snoopFanout::total            17451                       # Request fanout histogram (Count)
system.node1.xbar.power_state.pwrStateResidencyTicks::UNDEFINED   3640370500                       # Cumulative time (in ticks) in various power states (Tick)
system.node1.xbar.reqLayer17.occupancy       19682500                       # Layer occupancy (ticks) (Tick)
system.node1.xbar.reqLayer17.utilization          0.0                       # Layer utilization (Ratio)
system.node1.xbar.respLayer1.occupancy        7805000                       # Layer occupancy (ticks) (Tick)
system.node1.xbar.respLayer1.utilization          0.0                       # Layer utilization (Ratio)
system.node1.xbar.respLayer13.occupancy       7810000                       # Layer occupancy (ticks) (Tick)
system.node1.xbar.respLayer13.utilization          0.0                       # Layer utilization (Ratio)
system.node1.xbar.respLayer17.occupancy       7800000                       # Layer occupancy (ticks) (Tick)
system.node1.xbar.respLayer17.utilization          0.0                       # Layer utilization (Ratio)
system.node1.xbar.respLayer21.occupancy       7805000                       # Layer occupancy (ticks) (Tick)
system.node1.xbar.respLayer21.utilization          0.0                       # Layer utilization (Ratio)
system.node1.xbar.respLayer25.occupancy       7805000                       # Layer occupancy (ticks) (Tick)
system.node1.xbar.respLayer25.utilization          0.0                       # Layer utilization (Ratio)
system.node1.xbar.respLayer29.occupancy       7800000                       # Layer occupancy (ticks) (Tick)
system.node1.xbar.respLayer29.utilization          0.0                       # Layer utilization (Ratio)
system.node1.xbar.respLayer5.occupancy        7805000                       # Layer occupancy (ticks) (Tick)
system.node1.xbar.respLayer5.utilization          0.0                       # Layer utilization (Ratio)
system.node1.xbar.respLayer9.occupancy        7810000                       # Layer occupancy (ticks) (Tick)
system.node1.xbar.respLayer9.utilization          0.0                       # Layer utilization (Ratio)
system.node1.xbar.snoop_filter.totRequests        17451                       # Total number of requests made to the snoop filter. (Count)
system.node1.xbar.snoop_filter.hitSingleRequests            0                       # Number of requests hitting in the snoop filter with a single holder of the requested data. (Count)
system.node1.xbar.snoop_filter.hitMultiRequests            0                       # Number of requests hitting in the snoop filter with multiple (>1) holders of the requested data. (Count)
system.node1.xbar.snoop_filter.totSnoops            0                       # Total number of snoops made to the snoop filter. (Count)
system.node1.xbar.snoop_filter.hitSingleSnoops            0                       # Number of snoops hitting in the snoop filter with a single holder of the requested data. (Count)
system.node1.xbar.snoop_filter.hitMultiSnoops            0                       # Number of snoops hitting in the snoop filter with multiple (>1) holders of the requested data. (Count)
system.workload.inst.arm                            0                       # number of arm instructions executed (Count)
system.workload.inst.quiesce                        0                       # number of quiesce instructions executed (Count)

---------- End Simulation Statistics   ----------
