
---------- Begin Simulation Statistics ----------
simSeconds                                   0.020861                       # Number of seconds simulated (Second)
simTicks                                  20861252250                       # Number of ticks simulated (Tick)
finalTick                                 20861252250                       # Number of ticks from beginning of simulation (restored from checkpoints and never reset) (Tick)
simFreq                                  1000000000000                       # The number of ticks per simulated second ((Tick/Second))
hostSeconds                                    114.52                       # Real time elapsed on the host (Second)
hostTickRate                                182165031                       # The number of ticks simulated per host second (ticks/s) ((Tick/Second))
hostMemory                                    4315704                       # Number of bytes of host memory used (Byte)
simInsts                                     24686320                       # Number of instructions simulated (Count)
simOps                                       45907468                       # Number of ops (including micro ops) simulated (Count)
hostInstRate                                   215566                       # Simulator instruction rate (inst/s) ((Count/Second))
hostOpRate                                     400874                       # Simulator op (including micro ops) rate (op/s) ((Count/Second))
system.bridge0.power_state.pwrStateResidencyTicks::UNDEFINED  20861252250                       # Cumulative time (in ticks) in various power states (Tick)
system.bridge1.power_state.pwrStateResidencyTicks::UNDEFINED  20861252250                       # Cumulative time (in ticks) in various power states (Tick)
system.clk_domain.clock                          1000                       # Clock period in ticks (Tick)
system.clk_domain.voltage_domain.voltage            1                       # Voltage in Volts (Volt)
system.node0.cpus0.numCycles                 81647736                       # Number of cpu cycles simulated (Cycle)
system.node0.cpus0.cpi                       7.018581                       # CPI: cycles per instruction (core level) ((Cycle/Count))
system.node0.cpus0.ipc                       0.142479                       # IPC: instructions per cycle (core level) ((Count/Cycle))
system.node0.cpus0.numWorkItemsStarted              0                       # Number of work items this cpu started (Count)
system.node0.cpus0.numWorkItemsCompleted            0                       # Number of work items this cpu completed (Count)
system.node0.cpus0.instsAdded                22717844                       # Number of instructions added to the IQ (excludes non-spec) (Count)
system.node0.cpus0.nonSpecInstsAdded             4637                       # Number of non-speculative instructions added to the IQ (Count)
system.node0.cpus0.instsIssued               22341726                       # Number of instructions issued (Count)
system.node0.cpus0.squashedInstsIssued          29587                       # Number of squashed instructions issued (Count)
system.node0.cpus0.squashedInstsExamined      1003937                       # Number of squashed instructions iterated over during squash; mainly for profiling (Count)
system.node0.cpus0.squashedOperandsExamined      1850380                       # Number of squashed operands that are examined and possibly removed from graph (Count)
system.node0.cpus0.squashedNonSpecRemoved         1123                       # Number of squashed non-spec instructions that were removed (Count)
system.node0.cpus0.numIssuedDist::samples     81188443                       # Number of insts issued each cycle (Count)
system.node0.cpus0.numIssuedDist::mean       0.275184                       # Number of insts issued each cycle (Count)
system.node0.cpus0.numIssuedDist::stdev      1.232192                       # Number of insts issued each cycle (Count)
system.node0.cpus0.numIssuedDist::underflows            0      0.00%      0.00% # Number of insts issued each cycle (Count)
system.node0.cpus0.numIssuedDist::0          76530145     94.26%     94.26% # Number of insts issued each cycle (Count)
system.node0.cpus0.numIssuedDist::1            424767      0.52%     94.79% # Number of insts issued each cycle (Count)
system.node0.cpus0.numIssuedDist::2            471999      0.58%     95.37% # Number of insts issued each cycle (Count)
system.node0.cpus0.numIssuedDist::3            497421      0.61%     95.98% # Number of insts issued each cycle (Count)
system.node0.cpus0.numIssuedDist::4            656425      0.81%     96.79% # Number of insts issued each cycle (Count)
system.node0.cpus0.numIssuedDist::5            640975      0.79%     97.58% # Number of insts issued each cycle (Count)
system.node0.cpus0.numIssuedDist::6            741708      0.91%     98.49% # Number of insts issued each cycle (Count)
system.node0.cpus0.numIssuedDist::7            600149      0.74%     99.23% # Number of insts issued each cycle (Count)
system.node0.cpus0.numIssuedDist::8            624854      0.77%    100.00% # Number of insts issued each cycle (Count)
system.node0.cpus0.numIssuedDist::overflows            0      0.00%    100.00% # Number of insts issued each cycle (Count)
system.node0.cpus0.numIssuedDist::min_value            0                       # Number of insts issued each cycle (Count)
system.node0.cpus0.numIssuedDist::max_value            8                       # Number of insts issued each cycle (Count)
system.node0.cpus0.numIssuedDist::total      81188443                       # Number of insts issued each cycle (Count)
system.node0.cpus0.statFuBusy::No_OpClass            0      0.00%      0.00% # attempts to use FU when none available (Count)
system.node0.cpus0.statFuBusy::IntAlu          100309      8.54%      8.54% # attempts to use FU when none available (Count)
system.node0.cpus0.statFuBusy::IntMult              0      0.00%      8.54% # attempts to use FU when none available (Count)
system.node0.cpus0.statFuBusy::IntDiv               0      0.00%      8.54% # attempts to use FU when none available (Count)
system.node0.cpus0.statFuBusy::FloatAdd             0      0.00%      8.54% # attempts to use FU when none available (Count)
system.node0.cpus0.statFuBusy::FloatCmp             0      0.00%      8.54% # attempts to use FU when none available (Count)
system.node0.cpus0.statFuBusy::FloatCvt             0      0.00%      8.54% # attempts to use FU when none available (Count)
system.node0.cpus0.statFuBusy::FloatMult            0      0.00%      8.54% # attempts to use FU when none available (Count)
system.node0.cpus0.statFuBusy::FloatMultAcc            0      0.00%      8.54% # attempts to use FU when none available (Count)
system.node0.cpus0.statFuBusy::FloatDiv             0      0.00%      8.54% # attempts to use FU when none available (Count)
system.node0.cpus0.statFuBusy::FloatMisc            0      0.00%      8.54% # attempts to use FU when none available (Count)
system.node0.cpus0.statFuBusy::FloatSqrt            0      0.00%      8.54% # attempts to use FU when none available (Count)
system.node0.cpus0.statFuBusy::SimdAdd              1      0.00%      8.54% # attempts to use FU when none available (Count)
system.node0.cpus0.statFuBusy::SimdAddAcc            0      0.00%      8.54% # attempts to use FU when none available (Count)
system.node0.cpus0.statFuBusy::SimdAlu          26603      2.26%     10.80% # attempts to use FU when none available (Count)
system.node0.cpus0.statFuBusy::SimdCmp              2      0.00%     10.80% # attempts to use FU when none available (Count)
system.node0.cpus0.statFuBusy::SimdCvt             15      0.00%     10.81% # attempts to use FU when none available (Count)
system.node0.cpus0.statFuBusy::SimdMisc           100      0.01%     10.81% # attempts to use FU when none available (Count)
system.node0.cpus0.statFuBusy::SimdMult             0      0.00%     10.81% # attempts to use FU when none available (Count)
system.node0.cpus0.statFuBusy::SimdMultAcc            0      0.00%     10.81% # attempts to use FU when none available (Count)
system.node0.cpus0.statFuBusy::SimdMatMultAcc            0      0.00%     10.81% # attempts to use FU when none available (Count)
system.node0.cpus0.statFuBusy::SimdShift            1      0.00%     10.81% # attempts to use FU when none available (Count)
system.node0.cpus0.statFuBusy::SimdShiftAcc            0      0.00%     10.81% # attempts to use FU when none available (Count)
system.node0.cpus0.statFuBusy::SimdDiv              0      0.00%     10.81% # attempts to use FU when none available (Count)
system.node0.cpus0.statFuBusy::SimdSqrt             0      0.00%     10.81% # attempts to use FU when none available (Count)
system.node0.cpus0.statFuBusy::SimdFloatAdd       143123     12.18%     23.00% # attempts to use FU when none available (Count)
system.node0.cpus0.statFuBusy::SimdFloatAlu            0      0.00%     23.00% # attempts to use FU when none available (Count)
system.node0.cpus0.statFuBusy::SimdFloatCmp         6139      0.52%     23.52% # attempts to use FU when none available (Count)
system.node0.cpus0.statFuBusy::SimdFloatCvt          249      0.02%     23.54% # attempts to use FU when none available (Count)
system.node0.cpus0.statFuBusy::SimdFloatDiv            0      0.00%     23.54% # attempts to use FU when none available (Count)
system.node0.cpus0.statFuBusy::SimdFloatMisc            0      0.00%     23.54% # attempts to use FU when none available (Count)
system.node0.cpus0.statFuBusy::SimdFloatMult        86832      7.39%     30.93% # attempts to use FU when none available (Count)
system.node0.cpus0.statFuBusy::SimdFloatMultAcc            0      0.00%     30.93% # attempts to use FU when none available (Count)
system.node0.cpus0.statFuBusy::SimdFloatMatMultAcc            0      0.00%     30.93% # attempts to use FU when none available (Count)
system.node0.cpus0.statFuBusy::SimdFloatSqrt            0      0.00%     30.93% # attempts to use FU when none available (Count)
system.node0.cpus0.statFuBusy::SimdReduceAdd            0      0.00%     30.93% # attempts to use FU when none available (Count)
system.node0.cpus0.statFuBusy::SimdReduceAlu            0      0.00%     30.93% # attempts to use FU when none available (Count)
system.node0.cpus0.statFuBusy::SimdReduceCmp            0      0.00%     30.93% # attempts to use FU when none available (Count)
system.node0.cpus0.statFuBusy::SimdFloatReduceAdd            0      0.00%     30.93% # attempts to use FU when none available (Count)
system.node0.cpus0.statFuBusy::SimdFloatReduceCmp            0      0.00%     30.93% # attempts to use FU when none available (Count)
system.node0.cpus0.statFuBusy::SimdAes              0      0.00%     30.93% # attempts to use FU when none available (Count)
system.node0.cpus0.statFuBusy::SimdAesMix            0      0.00%     30.93% # attempts to use FU when none available (Count)
system.node0.cpus0.statFuBusy::SimdSha1Hash            0      0.00%     30.93% # attempts to use FU when none available (Count)
system.node0.cpus0.statFuBusy::SimdSha1Hash2            0      0.00%     30.93% # attempts to use FU when none available (Count)
system.node0.cpus0.statFuBusy::SimdSha256Hash            0      0.00%     30.93% # attempts to use FU when none available (Count)
system.node0.cpus0.statFuBusy::SimdSha256Hash2            0      0.00%     30.93% # attempts to use FU when none available (Count)
system.node0.cpus0.statFuBusy::SimdShaSigma2            0      0.00%     30.93% # attempts to use FU when none available (Count)
system.node0.cpus0.statFuBusy::SimdShaSigma3            0      0.00%     30.93% # attempts to use FU when none available (Count)
system.node0.cpus0.statFuBusy::SimdSha3             0      0.00%     30.93% # attempts to use FU when none available (Count)
system.node0.cpus0.statFuBusy::SimdSm4e             0      0.00%     30.93% # attempts to use FU when none available (Count)
system.node0.cpus0.statFuBusy::SimdCrc              0      0.00%     30.93% # attempts to use FU when none available (Count)
system.node0.cpus0.statFuBusy::SimdPredAlu            0      0.00%     30.93% # attempts to use FU when none available (Count)
system.node0.cpus0.statFuBusy::SimdDotProd            0      0.00%     30.93% # attempts to use FU when none available (Count)
system.node0.cpus0.statFuBusy::Matrix               0      0.00%     30.93% # attempts to use FU when none available (Count)
system.node0.cpus0.statFuBusy::MatrixMov            0      0.00%     30.93% # attempts to use FU when none available (Count)
system.node0.cpus0.statFuBusy::MatrixOP             0      0.00%     30.93% # attempts to use FU when none available (Count)
system.node0.cpus0.statFuBusy::MemRead          24399      2.08%     33.01% # attempts to use FU when none available (Count)
system.node0.cpus0.statFuBusy::MemWrite          4035      0.34%     33.35% # attempts to use FU when none available (Count)
system.node0.cpus0.statFuBusy::FloatMemRead       779580     66.37%     99.72% # attempts to use FU when none available (Count)
system.node0.cpus0.statFuBusy::FloatMemWrite         3291      0.28%    100.00% # attempts to use FU when none available (Count)
system.node0.cpus0.statFuBusy::InstPrefetch            0      0.00%    100.00% # attempts to use FU when none available (Count)
system.node0.cpus0.statFuBusy::SimdUnitStrideLoad            0      0.00%    100.00% # attempts to use FU when none available (Count)
system.node0.cpus0.statFuBusy::SimdUnitStrideStore            0      0.00%    100.00% # attempts to use FU when none available (Count)
system.node0.cpus0.statFuBusy::SimdUnitStrideMaskLoad            0      0.00%    100.00% # attempts to use FU when none available (Count)
system.node0.cpus0.statFuBusy::SimdUnitStrideMaskStore            0      0.00%    100.00% # attempts to use FU when none available (Count)
system.node0.cpus0.statFuBusy::SimdStridedLoad            0      0.00%    100.00% # attempts to use FU when none available (Count)
system.node0.cpus0.statFuBusy::SimdStridedStore            0      0.00%    100.00% # attempts to use FU when none available (Count)
system.node0.cpus0.statFuBusy::SimdIndexedLoad            0      0.00%    100.00% # attempts to use FU when none available (Count)
system.node0.cpus0.statFuBusy::SimdIndexedStore            0      0.00%    100.00% # attempts to use FU when none available (Count)
system.node0.cpus0.statFuBusy::SimdWholeRegisterLoad            0      0.00%    100.00% # attempts to use FU when none available (Count)
system.node0.cpus0.statFuBusy::SimdWholeRegisterStore            0      0.00%    100.00% # attempts to use FU when none available (Count)
system.node0.cpus0.statFuBusy::SimdUnitStrideFaultOnlyFirstLoad            0      0.00%    100.00% # attempts to use FU when none available (Count)
system.node0.cpus0.statFuBusy::SimdUnitStrideSegmentedLoad            0      0.00%    100.00% # attempts to use FU when none available (Count)
system.node0.cpus0.statFuBusy::SimdUnitStrideSegmentedStore            0      0.00%    100.00% # attempts to use FU when none available (Count)
system.node0.cpus0.statFuBusy::SimdUnitStrideSegmentedFaultOnlyFirstLoad            0      0.00%    100.00% # attempts to use FU when none available (Count)
system.node0.cpus0.statFuBusy::SimdStrideSegmentedLoad            0      0.00%    100.00% # attempts to use FU when none available (Count)
system.node0.cpus0.statFuBusy::SimdStrideSegmentedStore            0      0.00%    100.00% # attempts to use FU when none available (Count)
system.node0.cpus0.statFuBusy::SimdExt              0      0.00%    100.00% # attempts to use FU when none available (Count)
system.node0.cpus0.statFuBusy::SimdFloatExt            0      0.00%    100.00% # attempts to use FU when none available (Count)
system.node0.cpus0.statFuBusy::SimdConfig            0      0.00%    100.00% # attempts to use FU when none available (Count)
system.node0.cpus0.statFuBusy::SimdBf16Add            0      0.00%    100.00% # attempts to use FU when none available (Count)
system.node0.cpus0.statFuBusy::SimdBf16Cmp            0      0.00%    100.00% # attempts to use FU when none available (Count)
system.node0.cpus0.statFuBusy::SimdBf16Cvt            0      0.00%    100.00% # attempts to use FU when none available (Count)
system.node0.cpus0.statFuBusy::SimdBf16DotProd            0      0.00%    100.00% # attempts to use FU when none available (Count)
system.node0.cpus0.statFuBusy::SimdBf16MatMultAcc            0      0.00%    100.00% # attempts to use FU when none available (Count)
system.node0.cpus0.statFuBusy::SimdBf16Mult            0      0.00%    100.00% # attempts to use FU when none available (Count)
system.node0.cpus0.statFuBusy::SimdBf16MultAcc            0      0.00%    100.00% # attempts to use FU when none available (Count)
system.node0.cpus0.statFuBusy::Bf16Cvt              0      0.00%    100.00% # attempts to use FU when none available (Count)
system.node0.cpus0.statFuBusy::System               0      0.00%    100.00% # attempts to use FU when none available (Count)
system.node0.cpus0.issuedInstType_0::No_OpClass        55876      0.25%      0.25% # Number of instructions issued per FU type, per thread (Count)
system.node0.cpus0.issuedInstType_0::IntAlu      7984105     35.74%     35.99% # Number of instructions issued per FU type, per thread (Count)
system.node0.cpus0.issuedInstType_0::IntMult       119491      0.53%     36.52% # Number of instructions issued per FU type, per thread (Count)
system.node0.cpus0.issuedInstType_0::IntDiv         4076      0.02%     36.54% # Number of instructions issued per FU type, per thread (Count)
system.node0.cpus0.issuedInstType_0::FloatAdd       157038      0.70%     37.24% # Number of instructions issued per FU type, per thread (Count)
system.node0.cpus0.issuedInstType_0::FloatCmp            0      0.00%     37.24% # Number of instructions issued per FU type, per thread (Count)
system.node0.cpus0.issuedInstType_0::FloatCvt            0      0.00%     37.24% # Number of instructions issued per FU type, per thread (Count)
system.node0.cpus0.issuedInstType_0::FloatMult            0      0.00%     37.24% # Number of instructions issued per FU type, per thread (Count)
system.node0.cpus0.issuedInstType_0::FloatMultAcc            0      0.00%     37.24% # Number of instructions issued per FU type, per thread (Count)
system.node0.cpus0.issuedInstType_0::FloatDiv            0      0.00%     37.24% # Number of instructions issued per FU type, per thread (Count)
system.node0.cpus0.issuedInstType_0::FloatMisc            0      0.00%     37.24% # Number of instructions issued per FU type, per thread (Count)
system.node0.cpus0.issuedInstType_0::FloatSqrt            0      0.00%     37.24% # Number of instructions issued per FU type, per thread (Count)
system.node0.cpus0.issuedInstType_0::SimdAdd          362      0.00%     37.24% # Number of instructions issued per FU type, per thread (Count)
system.node0.cpus0.issuedInstType_0::SimdAddAcc            0      0.00%     37.24% # Number of instructions issued per FU type, per thread (Count)
system.node0.cpus0.issuedInstType_0::SimdAlu       142689      0.64%     37.88% # Number of instructions issued per FU type, per thread (Count)
system.node0.cpus0.issuedInstType_0::SimdCmp           31      0.00%     37.88% # Number of instructions issued per FU type, per thread (Count)
system.node0.cpus0.issuedInstType_0::SimdCvt         1772      0.01%     37.89% # Number of instructions issued per FU type, per thread (Count)
system.node0.cpus0.issuedInstType_0::SimdMisc        79775      0.36%     38.25% # Number of instructions issued per FU type, per thread (Count)
system.node0.cpus0.issuedInstType_0::SimdMult            0      0.00%     38.25% # Number of instructions issued per FU type, per thread (Count)
system.node0.cpus0.issuedInstType_0::SimdMultAcc            0      0.00%     38.25% # Number of instructions issued per FU type, per thread (Count)
system.node0.cpus0.issuedInstType_0::SimdMatMultAcc            0      0.00%     38.25% # Number of instructions issued per FU type, per thread (Count)
system.node0.cpus0.issuedInstType_0::SimdShift         1076      0.00%     38.25% # Number of instructions issued per FU type, per thread (Count)
system.node0.cpus0.issuedInstType_0::SimdShiftAcc            0      0.00%     38.25% # Number of instructions issued per FU type, per thread (Count)
system.node0.cpus0.issuedInstType_0::SimdDiv            0      0.00%     38.25% # Number of instructions issued per FU type, per thread (Count)
system.node0.cpus0.issuedInstType_0::SimdSqrt            0      0.00%     38.25% # Number of instructions issued per FU type, per thread (Count)
system.node0.cpus0.issuedInstType_0::SimdFloatAdd      4411676     19.75%     58.00% # Number of instructions issued per FU type, per thread (Count)
system.node0.cpus0.issuedInstType_0::SimdFloatAlu            0      0.00%     58.00% # Number of instructions issued per FU type, per thread (Count)
system.node0.cpus0.issuedInstType_0::SimdFloatCmp        70242      0.31%     58.31% # Number of instructions issued per FU type, per thread (Count)
system.node0.cpus0.issuedInstType_0::SimdFloatCvt       108090      0.48%     58.80% # Number of instructions issued per FU type, per thread (Count)
system.node0.cpus0.issuedInstType_0::SimdFloatDiv           18      0.00%     58.80% # Number of instructions issued per FU type, per thread (Count)
system.node0.cpus0.issuedInstType_0::SimdFloatMisc            0      0.00%     58.80% # Number of instructions issued per FU type, per thread (Count)
system.node0.cpus0.issuedInstType_0::SimdFloatMult      1164188      5.21%     64.01% # Number of instructions issued per FU type, per thread (Count)
system.node0.cpus0.issuedInstType_0::SimdFloatMultAcc            0      0.00%     64.01% # Number of instructions issued per FU type, per thread (Count)
system.node0.cpus0.issuedInstType_0::SimdFloatMatMultAcc            0      0.00%     64.01% # Number of instructions issued per FU type, per thread (Count)
system.node0.cpus0.issuedInstType_0::SimdFloatSqrt            4      0.00%     64.01% # Number of instructions issued per FU type, per thread (Count)
system.node0.cpus0.issuedInstType_0::SimdReduceAdd            0      0.00%     64.01% # Number of instructions issued per FU type, per thread (Count)
system.node0.cpus0.issuedInstType_0::SimdReduceAlu            0      0.00%     64.01% # Number of instructions issued per FU type, per thread (Count)
system.node0.cpus0.issuedInstType_0::SimdReduceCmp            0      0.00%     64.01% # Number of instructions issued per FU type, per thread (Count)
system.node0.cpus0.issuedInstType_0::SimdFloatReduceAdd            0      0.00%     64.01% # Number of instructions issued per FU type, per thread (Count)
system.node0.cpus0.issuedInstType_0::SimdFloatReduceCmp            0      0.00%     64.01% # Number of instructions issued per FU type, per thread (Count)
system.node0.cpus0.issuedInstType_0::SimdAes            0      0.00%     64.01% # Number of instructions issued per FU type, per thread (Count)
system.node0.cpus0.issuedInstType_0::SimdAesMix            0      0.00%     64.01% # Number of instructions issued per FU type, per thread (Count)
system.node0.cpus0.issuedInstType_0::SimdSha1Hash            0      0.00%     64.01% # Number of instructions issued per FU type, per thread (Count)
system.node0.cpus0.issuedInstType_0::SimdSha1Hash2            0      0.00%     64.01% # Number of instructions issued per FU type, per thread (Count)
system.node0.cpus0.issuedInstType_0::SimdSha256Hash            0      0.00%     64.01% # Number of instructions issued per FU type, per thread (Count)
system.node0.cpus0.issuedInstType_0::SimdSha256Hash2            0      0.00%     64.01% # Number of instructions issued per FU type, per thread (Count)
system.node0.cpus0.issuedInstType_0::SimdShaSigma2            0      0.00%     64.01% # Number of instructions issued per FU type, per thread (Count)
system.node0.cpus0.issuedInstType_0::SimdShaSigma3            0      0.00%     64.01% # Number of instructions issued per FU type, per thread (Count)
system.node0.cpus0.issuedInstType_0::SimdSha3            0      0.00%     64.01% # Number of instructions issued per FU type, per thread (Count)
system.node0.cpus0.issuedInstType_0::SimdSm4e            0      0.00%     64.01% # Number of instructions issued per FU type, per thread (Count)
system.node0.cpus0.issuedInstType_0::SimdCrc            0      0.00%     64.01% # Number of instructions issued per FU type, per thread (Count)
system.node0.cpus0.issuedInstType_0::SimdPredAlu            0      0.00%     64.01% # Number of instructions issued per FU type, per thread (Count)
system.node0.cpus0.issuedInstType_0::SimdDotProd            0      0.00%     64.01% # Number of instructions issued per FU type, per thread (Count)
system.node0.cpus0.issuedInstType_0::Matrix            0      0.00%     64.01% # Number of instructions issued per FU type, per thread (Count)
system.node0.cpus0.issuedInstType_0::MatrixMov            0      0.00%     64.01% # Number of instructions issued per FU type, per thread (Count)
system.node0.cpus0.issuedInstType_0::MatrixOP            0      0.00%     64.01% # Number of instructions issued per FU type, per thread (Count)
system.node0.cpus0.issuedInstType_0::MemRead       705551      3.16%     67.17% # Number of instructions issued per FU type, per thread (Count)
system.node0.cpus0.issuedInstType_0::MemWrite       282658      1.27%     68.43% # Number of instructions issued per FU type, per thread (Count)
system.node0.cpus0.issuedInstType_0::FloatMemRead      5602881     25.08%     93.51% # Number of instructions issued per FU type, per thread (Count)
system.node0.cpus0.issuedInstType_0::FloatMemWrite      1450127      6.49%    100.00% # Number of instructions issued per FU type, per thread (Count)
system.node0.cpus0.issuedInstType_0::InstPrefetch            0      0.00%    100.00% # Number of instructions issued per FU type, per thread (Count)
system.node0.cpus0.issuedInstType_0::SimdUnitStrideLoad            0      0.00%    100.00% # Number of instructions issued per FU type, per thread (Count)
system.node0.cpus0.issuedInstType_0::SimdUnitStrideStore            0      0.00%    100.00% # Number of instructions issued per FU type, per thread (Count)
system.node0.cpus0.issuedInstType_0::SimdUnitStrideMaskLoad            0      0.00%    100.00% # Number of instructions issued per FU type, per thread (Count)
system.node0.cpus0.issuedInstType_0::SimdUnitStrideMaskStore            0      0.00%    100.00% # Number of instructions issued per FU type, per thread (Count)
system.node0.cpus0.issuedInstType_0::SimdStridedLoad            0      0.00%    100.00% # Number of instructions issued per FU type, per thread (Count)
system.node0.cpus0.issuedInstType_0::SimdStridedStore            0      0.00%    100.00% # Number of instructions issued per FU type, per thread (Count)
system.node0.cpus0.issuedInstType_0::SimdIndexedLoad            0      0.00%    100.00% # Number of instructions issued per FU type, per thread (Count)
system.node0.cpus0.issuedInstType_0::SimdIndexedStore            0      0.00%    100.00% # Number of instructions issued per FU type, per thread (Count)
system.node0.cpus0.issuedInstType_0::SimdWholeRegisterLoad            0      0.00%    100.00% # Number of instructions issued per FU type, per thread (Count)
system.node0.cpus0.issuedInstType_0::SimdWholeRegisterStore            0      0.00%    100.00% # Number of instructions issued per FU type, per thread (Count)
system.node0.cpus0.issuedInstType_0::SimdUnitStrideFaultOnlyFirstLoad            0      0.00%    100.00% # Number of instructions issued per FU type, per thread (Count)
system.node0.cpus0.issuedInstType_0::SimdUnitStrideSegmentedLoad            0      0.00%    100.00% # Number of instructions issued per FU type, per thread (Count)
system.node0.cpus0.issuedInstType_0::SimdUnitStrideSegmentedStore            0      0.00%    100.00% # Number of instructions issued per FU type, per thread (Count)
system.node0.cpus0.issuedInstType_0::SimdUnitStrideSegmentedFaultOnlyFirstLoad            0      0.00%    100.00% # Number of instructions issued per FU type, per thread (Count)
system.node0.cpus0.issuedInstType_0::SimdStrideSegmentedLoad            0      0.00%    100.00% # Number of instructions issued per FU type, per thread (Count)
system.node0.cpus0.issuedInstType_0::SimdStrideSegmentedStore            0      0.00%    100.00% # Number of instructions issued per FU type, per thread (Count)
system.node0.cpus0.issuedInstType_0::SimdExt            0      0.00%    100.00% # Number of instructions issued per FU type, per thread (Count)
system.node0.cpus0.issuedInstType_0::SimdFloatExt            0      0.00%    100.00% # Number of instructions issued per FU type, per thread (Count)
system.node0.cpus0.issuedInstType_0::SimdConfig            0      0.00%    100.00% # Number of instructions issued per FU type, per thread (Count)
system.node0.cpus0.issuedInstType_0::SimdBf16Add            0      0.00%    100.00% # Number of instructions issued per FU type, per thread (Count)
system.node0.cpus0.issuedInstType_0::SimdBf16Cmp            0      0.00%    100.00% # Number of instructions issued per FU type, per thread (Count)
system.node0.cpus0.issuedInstType_0::SimdBf16Cvt            0      0.00%    100.00% # Number of instructions issued per FU type, per thread (Count)
system.node0.cpus0.issuedInstType_0::SimdBf16DotProd            0      0.00%    100.00% # Number of instructions issued per FU type, per thread (Count)
system.node0.cpus0.issuedInstType_0::SimdBf16MatMultAcc            0      0.00%    100.00% # Number of instructions issued per FU type, per thread (Count)
system.node0.cpus0.issuedInstType_0::SimdBf16Mult            0      0.00%    100.00% # Number of instructions issued per FU type, per thread (Count)
system.node0.cpus0.issuedInstType_0::SimdBf16MultAcc            0      0.00%    100.00% # Number of instructions issued per FU type, per thread (Count)
system.node0.cpus0.issuedInstType_0::Bf16Cvt            0      0.00%    100.00% # Number of instructions issued per FU type, per thread (Count)
system.node0.cpus0.issuedInstType_0::System            0      0.00%    100.00% # Number of instructions issued per FU type, per thread (Count)
system.node0.cpus0.issuedInstType_0::total     22341726                       # Number of instructions issued per FU type, per thread (Count)
system.node0.cpus0.issueRate                 0.273636                       # Inst issue rate ((Count/Cycle))
system.node0.cpus0.fuBusy                     1174679                       # FU busy when requested (Count)
system.node0.cpus0.fuBusyRate                0.052578                       # FU busy rate (busy events/executed inst) ((Count/Count))
system.node0.cpus0.intInstQueueReads         97839568                       # Number of integer instruction queue reads (Count)
system.node0.cpus0.intInstQueueWrites         8836501                       # Number of integer instruction queue writes (Count)
system.node0.cpus0.intInstQueueWakeupAccesses      8186482                       # Number of integer instruction queue wakeup accesses (Count)
system.node0.cpus0.fpInstQueueReads          29236586                       # Number of floating instruction queue reads (Count)
system.node0.cpus0.fpInstQueueWrites         14890504                       # Number of floating instruction queue writes (Count)
system.node0.cpus0.fpInstQueueWakeupAccesses     13906817                       # Number of floating instruction queue wakeup accesses (Count)
system.node0.cpus0.vecInstQueueReads                0                       # Number of vector instruction queue reads (Count)
system.node0.cpus0.vecInstQueueWrites               0                       # Number of vector instruction queue writes (Count)
system.node0.cpus0.vecInstQueueWakeupAccesses            0                       # Number of vector instruction queue wakeup accesses (Count)
system.node0.cpus0.intAluAccesses             8328614                       # Number of integer alu accesses (Count)
system.node0.cpus0.fpAluAccesses             15131915                       # Number of floating point alu accesses (Count)
system.node0.cpus0.vecAluAccesses                   0                       # Number of vector alu accesses (Count)
system.node0.cpus0.numRecvResp                7885466                       # Number of received responses (Count)
system.node0.cpus0.numRecvRespBytes          61797442                       # Number of received response bytes (Byte)
system.node0.cpus0.recvRespAvgBW                 0.76                       # Average bandwidth of received responses ((Byte/Cycle))
system.node0.cpus0.recvRespAvgSize               7.84                       # Average packet size per received response ((Byte/Count))
system.node0.cpus0.recvRespAvgRate               0.10                       # Average rate of received responses per cycle ((Count/Cycle))
system.node0.cpus0.recvRespAvgRetryRate          0.00                       # Average retry rate per received response ((Count/Count))
system.node0.cpus0.numSendRetryResp                 0                       # Number of retry responses sent (Count)
system.node0.cpus0.numSquashedInsts            133097                       # Number of squashed instructions skipped in execute (Count)
system.node0.cpus0.numSwp                           0                       # Number of swp insts executed (Count)
system.node0.cpus0.timesIdled                    2016                       # Number of times that the entire CPU went into an idle state and unscheduled itself (Count)
system.node0.cpus0.idleCycles                  459293                       # Total number of cycles that the CPU has spent unscheduled due to idling (Cycle)
system.node0.cpus0.quiesceCycles              1797274                       # Total number of cycles that CPU has spent quiesced or waiting for an interrupt (Cycle)
system.node0.cpus0.MemDepUnit__0.insertedLoads      6337569                       # Number of loads inserted to the mem dependence unit. (Count)
system.node0.cpus0.MemDepUnit__0.insertedStores      1776269                       # Number of stores inserted to the mem dependence unit. (Count)
system.node0.cpus0.MemDepUnit__0.conflictingLoads       391206                       # Number of conflicting loads. (Count)
system.node0.cpus0.MemDepUnit__0.conflictingStores       327586                       # Number of conflicting stores. (Count)
system.node0.cpus0.MemDepUnit__1.insertedLoads            0                       # Number of loads inserted to the mem dependence unit. (Count)
system.node0.cpus0.MemDepUnit__1.insertedStores            0                       # Number of stores inserted to the mem dependence unit. (Count)
system.node0.cpus0.MemDepUnit__1.conflictingLoads            0                       # Number of conflicting loads. (Count)
system.node0.cpus0.MemDepUnit__1.conflictingStores            0                       # Number of conflicting stores. (Count)
system.node0.cpus0.MemDepUnit__2.insertedLoads            0                       # Number of loads inserted to the mem dependence unit. (Count)
system.node0.cpus0.MemDepUnit__2.insertedStores            0                       # Number of stores inserted to the mem dependence unit. (Count)
system.node0.cpus0.MemDepUnit__2.conflictingLoads            0                       # Number of conflicting loads. (Count)
system.node0.cpus0.MemDepUnit__2.conflictingStores            0                       # Number of conflicting stores. (Count)
system.node0.cpus0.MemDepUnit__3.insertedLoads            0                       # Number of loads inserted to the mem dependence unit. (Count)
system.node0.cpus0.MemDepUnit__3.insertedStores            0                       # Number of stores inserted to the mem dependence unit. (Count)
system.node0.cpus0.MemDepUnit__3.conflictingLoads            0                       # Number of conflicting loads. (Count)
system.node0.cpus0.MemDepUnit__3.conflictingStores            0                       # Number of conflicting stores. (Count)
system.node0.cpus0.bac.fetchTargets                 0                       # Number of fetch targets created  (Count)
system.node0.cpus0.bac.branches               1059621                       # Number of branches that BAC encountered (Count)
system.node0.cpus0.bac.predTakenBranches       727769                       # Number of branches that BAC predicted taken. (Count)
system.node0.cpus0.bac.branchesNotLastuOp            0                       # Number of branches that fetch encountered which are not the last uOp within a macrooperation. Jump to itself. (Count)
system.node0.cpus0.bac.branchMisspredict        33288                       # Number of mispredicted branches (Count)
system.node0.cpus0.bac.noBranchMisspredict         1350                       # Number of non-branch instructions mispredicted (Count)
system.node0.cpus0.bac.squashBranchDecode         1992                       # Number of branches squashed from decode (Count)
system.node0.cpus0.bac.squashBranchCommit        31296                       # Number of branches squashed from commit (Count)
system.node0.cpus0.bac.preDecUpdate::NoBranch            0                       # Number of branches extracted from the predecoder (Count)
system.node0.cpus0.bac.preDecUpdate::Return            0                       # Number of branches extracted from the predecoder (Count)
system.node0.cpus0.bac.preDecUpdate::CallDirect            0                       # Number of branches extracted from the predecoder (Count)
system.node0.cpus0.bac.preDecUpdate::CallIndirect            0                       # Number of branches extracted from the predecoder (Count)
system.node0.cpus0.bac.preDecUpdate::DirectCond            0                       # Number of branches extracted from the predecoder (Count)
system.node0.cpus0.bac.preDecUpdate::DirectUncond            0                       # Number of branches extracted from the predecoder (Count)
system.node0.cpus0.bac.preDecUpdate::IndirectCond            0                       # Number of branches extracted from the predecoder (Count)
system.node0.cpus0.bac.preDecUpdate::IndirectUncond            0                       # Number of branches extracted from the predecoder (Count)
system.node0.cpus0.bac.preDecUpdate::total            0                       # Number of branches extracted from the predecoder (Count)
system.node0.cpus0.bac.noHistByType::NoBranch            0                       # Number and type of branches that were undetected by the BPU. (Count)
system.node0.cpus0.bac.noHistByType::Return            0                       # Number and type of branches that were undetected by the BPU. (Count)
system.node0.cpus0.bac.noHistByType::CallDirect            0                       # Number and type of branches that were undetected by the BPU. (Count)
system.node0.cpus0.bac.noHistByType::CallIndirect            0                       # Number and type of branches that were undetected by the BPU. (Count)
system.node0.cpus0.bac.noHistByType::DirectCond            0                       # Number and type of branches that were undetected by the BPU. (Count)
system.node0.cpus0.bac.noHistByType::DirectUncond            0                       # Number and type of branches that were undetected by the BPU. (Count)
system.node0.cpus0.bac.noHistByType::IndirectCond            0                       # Number and type of branches that were undetected by the BPU. (Count)
system.node0.cpus0.bac.noHistByType::IndirectUncond            0                       # Number and type of branches that were undetected by the BPU. (Count)
system.node0.cpus0.bac.noHistByType::total            0                       # Number and type of branches that were undetected by the BPU. (Count)
system.node0.cpus0.bac.typeMissmatch                0                       # Number branches where the branch type miss match (Count)
system.node0.cpus0.bac.multiBranchInst              0                       # Number branches because its not the last branch. (Count)
system.node0.cpus0.bac.ftSizeDist::samples            0                       # Number of bytes per fetch target (Count)
system.node0.cpus0.bac.ftSizeDist::mean           nan                       # Number of bytes per fetch target (Count)
system.node0.cpus0.bac.ftSizeDist::stdev          nan                       # Number of bytes per fetch target (Count)
system.node0.cpus0.bac.ftSizeDist::underflows            0                       # Number of bytes per fetch target (Count)
system.node0.cpus0.bac.ftSizeDist::0-3              0                       # Number of bytes per fetch target (Count)
system.node0.cpus0.bac.ftSizeDist::4-7              0                       # Number of bytes per fetch target (Count)
system.node0.cpus0.bac.ftSizeDist::8-11             0                       # Number of bytes per fetch target (Count)
system.node0.cpus0.bac.ftSizeDist::12-15            0                       # Number of bytes per fetch target (Count)
system.node0.cpus0.bac.ftSizeDist::16-19            0                       # Number of bytes per fetch target (Count)
system.node0.cpus0.bac.ftSizeDist::20-23            0                       # Number of bytes per fetch target (Count)
system.node0.cpus0.bac.ftSizeDist::24-27            0                       # Number of bytes per fetch target (Count)
system.node0.cpus0.bac.ftSizeDist::28-31            0                       # Number of bytes per fetch target (Count)
system.node0.cpus0.bac.ftSizeDist::32               0                       # Number of bytes per fetch target (Count)
system.node0.cpus0.bac.ftSizeDist::overflows            0                       # Number of bytes per fetch target (Count)
system.node0.cpus0.bac.ftSizeDist::min_value            0                       # Number of bytes per fetch target (Count)
system.node0.cpus0.bac.ftSizeDist::max_value            0                       # Number of bytes per fetch target (Count)
system.node0.cpus0.bac.ftSizeDist::total            0                       # Number of bytes per fetch target (Count)
system.node0.cpus0.bac.ftNumber::samples            0                       # Number of fetch target inserted to the FTQ per cycle (Count)
system.node0.cpus0.bac.ftNumber::mean             nan                       # Number of fetch target inserted to the FTQ per cycle (Count)
system.node0.cpus0.bac.ftNumber::stdev            nan                       # Number of fetch target inserted to the FTQ per cycle (Count)
system.node0.cpus0.bac.ftNumber::underflows            0                       # Number of fetch target inserted to the FTQ per cycle (Count)
system.node0.cpus0.bac.ftNumber::0                  0                       # Number of fetch target inserted to the FTQ per cycle (Count)
system.node0.cpus0.bac.ftNumber::1                  0                       # Number of fetch target inserted to the FTQ per cycle (Count)
system.node0.cpus0.bac.ftNumber::2                  0                       # Number of fetch target inserted to the FTQ per cycle (Count)
system.node0.cpus0.bac.ftNumber::3                  0                       # Number of fetch target inserted to the FTQ per cycle (Count)
system.node0.cpus0.bac.ftNumber::4                  0                       # Number of fetch target inserted to the FTQ per cycle (Count)
system.node0.cpus0.bac.ftNumber::overflows            0                       # Number of fetch target inserted to the FTQ per cycle (Count)
system.node0.cpus0.bac.ftNumber::min_value            0                       # Number of fetch target inserted to the FTQ per cycle (Count)
system.node0.cpus0.bac.ftNumber::max_value            0                       # Number of fetch target inserted to the FTQ per cycle (Count)
system.node0.cpus0.bac.ftNumber::total              0                       # Number of fetch target inserted to the FTQ per cycle (Count)
system.node0.cpus0.branchPred.lookups_0::NoBranch          499      0.05%      0.05% # Number of BP lookups (Count)
system.node0.cpus0.branchPred.lookups_0::Return        28806      2.72%      2.77% # Number of BP lookups (Count)
system.node0.cpus0.branchPred.lookups_0::CallDirect        28200      2.66%      5.43% # Number of BP lookups (Count)
system.node0.cpus0.branchPred.lookups_0::CallIndirect          914      0.09%      5.51% # Number of BP lookups (Count)
system.node0.cpus0.branchPred.lookups_0::DirectCond       948583     89.52%     95.03% # Number of BP lookups (Count)
system.node0.cpus0.branchPred.lookups_0::DirectUncond        35944      3.39%     98.43% # Number of BP lookups (Count)
system.node0.cpus0.branchPred.lookups_0::IndirectCond            0      0.00%     98.43% # Number of BP lookups (Count)
system.node0.cpus0.branchPred.lookups_0::IndirectUncond        16675      1.57%    100.00% # Number of BP lookups (Count)
system.node0.cpus0.branchPred.lookups_0::total      1059621                       # Number of BP lookups (Count)
system.node0.cpus0.branchPred.squashes_0::NoBranch          483      0.40%      0.40% # Number of branches that got squashed (completely removed) as an earlier branch was mispredicted. (Count)
system.node0.cpus0.branchPred.squashes_0::Return         6665      5.51%      5.91% # Number of branches that got squashed (completely removed) as an earlier branch was mispredicted. (Count)
system.node0.cpus0.branchPred.squashes_0::CallDirect         6404      5.30%     11.21% # Number of branches that got squashed (completely removed) as an earlier branch was mispredicted. (Count)
system.node0.cpus0.branchPred.squashes_0::CallIndirect          564      0.47%     11.68% # Number of branches that got squashed (completely removed) as an earlier branch was mispredicted. (Count)
system.node0.cpus0.branchPred.squashes_0::DirectCond        95903     79.34%     91.02% # Number of branches that got squashed (completely removed) as an earlier branch was mispredicted. (Count)
system.node0.cpus0.branchPred.squashes_0::DirectUncond         5092      4.21%     95.24% # Number of branches that got squashed (completely removed) as an earlier branch was mispredicted. (Count)
system.node0.cpus0.branchPred.squashes_0::IndirectCond            0      0.00%     95.24% # Number of branches that got squashed (completely removed) as an earlier branch was mispredicted. (Count)
system.node0.cpus0.branchPred.squashes_0::IndirectUncond         5758      4.76%    100.00% # Number of branches that got squashed (completely removed) as an earlier branch was mispredicted. (Count)
system.node0.cpus0.branchPred.squashes_0::total       120869                       # Number of branches that got squashed (completely removed) as an earlier branch was mispredicted. (Count)
system.node0.cpus0.branchPred.corrected_0::NoBranch           61      0.18%      0.18% # Number of branches that got corrected but not yet commited. Branches get corrected by decode or after execute. Also a branch misprediction can be detected out-of-order. Therefore, a corrected branch might not end up beeing committed in case an even earlier branch was mispredicted (Count)
system.node0.cpus0.branchPred.corrected_0::Return            7      0.02%      0.20% # Number of branches that got corrected but not yet commited. Branches get corrected by decode or after execute. Also a branch misprediction can be detected out-of-order. Therefore, a corrected branch might not end up beeing committed in case an even earlier branch was mispredicted (Count)
system.node0.cpus0.branchPred.corrected_0::CallDirect         1218      3.66%      3.86% # Number of branches that got corrected but not yet commited. Branches get corrected by decode or after execute. Also a branch misprediction can be detected out-of-order. Therefore, a corrected branch might not end up beeing committed in case an even earlier branch was mispredicted (Count)
system.node0.cpus0.branchPred.corrected_0::CallIndirect          176      0.53%      4.39% # Number of branches that got corrected but not yet commited. Branches get corrected by decode or after execute. Also a branch misprediction can be detected out-of-order. Therefore, a corrected branch might not end up beeing committed in case an even earlier branch was mispredicted (Count)
system.node0.cpus0.branchPred.corrected_0::DirectCond        30461     91.51%     95.90% # Number of branches that got corrected but not yet commited. Branches get corrected by decode or after execute. Also a branch misprediction can be detected out-of-order. Therefore, a corrected branch might not end up beeing committed in case an even earlier branch was mispredicted (Count)
system.node0.cpus0.branchPred.corrected_0::DirectUncond          736      2.21%     98.11% # Number of branches that got corrected but not yet commited. Branches get corrected by decode or after execute. Also a branch misprediction can be detected out-of-order. Therefore, a corrected branch might not end up beeing committed in case an even earlier branch was mispredicted (Count)
system.node0.cpus0.branchPred.corrected_0::IndirectCond            0      0.00%     98.11% # Number of branches that got corrected but not yet commited. Branches get corrected by decode or after execute. Also a branch misprediction can be detected out-of-order. Therefore, a corrected branch might not end up beeing committed in case an even earlier branch was mispredicted (Count)
system.node0.cpus0.branchPred.corrected_0::IndirectUncond          629      1.89%    100.00% # Number of branches that got corrected but not yet commited. Branches get corrected by decode or after execute. Also a branch misprediction can be detected out-of-order. Therefore, a corrected branch might not end up beeing committed in case an even earlier branch was mispredicted (Count)
system.node0.cpus0.branchPred.corrected_0::total        33288                       # Number of branches that got corrected but not yet commited. Branches get corrected by decode or after execute. Also a branch misprediction can be detected out-of-order. Therefore, a corrected branch might not end up beeing committed in case an even earlier branch was mispredicted (Count)
system.node0.cpus0.branchPred.earlyResteers_0::NoBranch            0      0.00%      0.00% # Number of branches that got redirected after decode. (Count)
system.node0.cpus0.branchPred.earlyResteers_0::Return            0      0.00%      0.00% # Number of branches that got redirected after decode. (Count)
system.node0.cpus0.branchPred.earlyResteers_0::CallDirect         1218     61.14%     61.14% # Number of branches that got redirected after decode. (Count)
system.node0.cpus0.branchPred.earlyResteers_0::CallIndirect            0      0.00%     61.14% # Number of branches that got redirected after decode. (Count)
system.node0.cpus0.branchPred.earlyResteers_0::DirectCond           38      1.91%     63.05% # Number of branches that got redirected after decode. (Count)
system.node0.cpus0.branchPred.earlyResteers_0::DirectUncond          736     36.95%    100.00% # Number of branches that got redirected after decode. (Count)
system.node0.cpus0.branchPred.earlyResteers_0::IndirectCond            0      0.00%    100.00% # Number of branches that got redirected after decode. (Count)
system.node0.cpus0.branchPred.earlyResteers_0::IndirectUncond            0      0.00%    100.00% # Number of branches that got redirected after decode. (Count)
system.node0.cpus0.branchPred.earlyResteers_0::total         1992                       # Number of branches that got redirected after decode. (Count)
system.node0.cpus0.branchPred.committed_0::NoBranch           16      0.00%      0.00% # Number of branches finally committed  (Count)
system.node0.cpus0.branchPred.committed_0::Return        22141      2.36%      2.36% # Number of branches finally committed  (Count)
system.node0.cpus0.branchPred.committed_0::CallDirect        21796      2.32%      4.68% # Number of branches finally committed  (Count)
system.node0.cpus0.branchPred.committed_0::CallIndirect          350      0.04%      4.72% # Number of branches finally committed  (Count)
system.node0.cpus0.branchPred.committed_0::DirectCond       852670     90.83%     95.55% # Number of branches finally committed  (Count)
system.node0.cpus0.branchPred.committed_0::DirectUncond        30852      3.29%     98.84% # Number of branches finally committed  (Count)
system.node0.cpus0.branchPred.committed_0::IndirectCond            0      0.00%     98.84% # Number of branches finally committed  (Count)
system.node0.cpus0.branchPred.committed_0::IndirectUncond        10917      1.16%    100.00% # Number of branches finally committed  (Count)
system.node0.cpus0.branchPred.committed_0::total       938742                       # Number of branches finally committed  (Count)
system.node0.cpus0.branchPred.mispredicted_0::NoBranch           16      0.05%      0.05% # Number of committed branches that were mispredicted. (Count)
system.node0.cpus0.branchPred.mispredicted_0::Return            0      0.00%      0.05% # Number of committed branches that were mispredicted. (Count)
system.node0.cpus0.branchPred.mispredicted_0::CallDirect          726      2.31%      2.36% # Number of committed branches that were mispredicted. (Count)
system.node0.cpus0.branchPred.mispredicted_0::CallIndirect           95      0.30%      2.66% # Number of committed branches that were mispredicted. (Count)
system.node0.cpus0.branchPred.mispredicted_0::DirectCond        29636     94.23%     96.89% # Number of committed branches that were mispredicted. (Count)
system.node0.cpus0.branchPred.mispredicted_0::DirectUncond          438      1.39%     98.28% # Number of committed branches that were mispredicted. (Count)
system.node0.cpus0.branchPred.mispredicted_0::IndirectCond            0      0.00%     98.28% # Number of committed branches that were mispredicted. (Count)
system.node0.cpus0.branchPred.mispredicted_0::IndirectUncond          540      1.72%    100.00% # Number of committed branches that were mispredicted. (Count)
system.node0.cpus0.branchPred.mispredicted_0::total        31451                       # Number of committed branches that were mispredicted. (Count)
system.node0.cpus0.branchPred.mispredictDueToPredictor_0::NoBranch           16      0.06%      0.06% # Number of committed branches that were mispredicted by the predictor. (Count)
system.node0.cpus0.branchPred.mispredictDueToPredictor_0::Return            0      0.00%      0.06% # Number of committed branches that were mispredicted by the predictor. (Count)
system.node0.cpus0.branchPred.mispredictDueToPredictor_0::CallDirect            0      0.00%      0.06% # Number of committed branches that were mispredicted by the predictor. (Count)
system.node0.cpus0.branchPred.mispredictDueToPredictor_0::CallIndirect            0      0.00%      0.06% # Number of committed branches that were mispredicted by the predictor. (Count)
system.node0.cpus0.branchPred.mispredictDueToPredictor_0::DirectCond        28014     99.94%    100.00% # Number of committed branches that were mispredicted by the predictor. (Count)
system.node0.cpus0.branchPred.mispredictDueToPredictor_0::DirectUncond            0      0.00%    100.00% # Number of committed branches that were mispredicted by the predictor. (Count)
system.node0.cpus0.branchPred.mispredictDueToPredictor_0::IndirectCond            0      0.00%    100.00% # Number of committed branches that were mispredicted by the predictor. (Count)
system.node0.cpus0.branchPred.mispredictDueToPredictor_0::IndirectUncond            0      0.00%    100.00% # Number of committed branches that were mispredicted by the predictor. (Count)
system.node0.cpus0.branchPred.mispredictDueToPredictor_0::total        28030                       # Number of committed branches that were mispredicted by the predictor. (Count)
system.node0.cpus0.branchPred.mispredictDueToBTBMiss_0::NoBranch            0      0.00%      0.00% # Number of committed branches that were mispredicted because of a BTB miss. (Count)
system.node0.cpus0.branchPred.mispredictDueToBTBMiss_0::Return            0      0.00%      0.00% # Number of committed branches that were mispredicted because of a BTB miss. (Count)
system.node0.cpus0.branchPred.mispredictDueToBTBMiss_0::CallDirect          726     21.22%     21.22% # Number of committed branches that were mispredicted because of a BTB miss. (Count)
system.node0.cpus0.branchPred.mispredictDueToBTBMiss_0::CallIndirect           95      2.78%     24.00% # Number of committed branches that were mispredicted because of a BTB miss. (Count)
system.node0.cpus0.branchPred.mispredictDueToBTBMiss_0::DirectCond         1622     47.41%     71.41% # Number of committed branches that were mispredicted because of a BTB miss. (Count)
system.node0.cpus0.branchPred.mispredictDueToBTBMiss_0::DirectUncond          438     12.80%     84.22% # Number of committed branches that were mispredicted because of a BTB miss. (Count)
system.node0.cpus0.branchPred.mispredictDueToBTBMiss_0::IndirectCond            0      0.00%     84.22% # Number of committed branches that were mispredicted because of a BTB miss. (Count)
system.node0.cpus0.branchPred.mispredictDueToBTBMiss_0::IndirectUncond          540     15.78%    100.00% # Number of committed branches that were mispredicted because of a BTB miss. (Count)
system.node0.cpus0.branchPred.mispredictDueToBTBMiss_0::total         3421                       # Number of committed branches that were mispredicted because of a BTB miss. (Count)
system.node0.cpus0.branchPred.targetProvider_0::NoTarget       331852     31.32%     31.32% # The component providing the target for taken branches (Count)
system.node0.cpus0.branchPred.targetProvider_0::BTB       687233     64.86%     96.17% # The component providing the target for taken branches (Count)
system.node0.cpus0.branchPred.targetProvider_0::RAS        28806      2.72%     98.89% # The component providing the target for taken branches (Count)
system.node0.cpus0.branchPred.targetProvider_0::Indirect        11730      1.11%    100.00% # The component providing the target for taken branches (Count)
system.node0.cpus0.branchPred.targetProvider_0::total      1059621                       # The component providing the target for taken branches (Count)
system.node0.cpus0.branchPred.targetWrong_0::NoBranch         9148     27.73%     27.73% # Number of branches where the target was incorrect or not available at prediction time. (Count)
system.node0.cpus0.branchPred.targetWrong_0::Return        23675     71.77%     99.50% # Number of branches where the target was incorrect or not available at prediction time. (Count)
system.node0.cpus0.branchPred.targetWrong_0::CallDirect            7      0.02%     99.52% # Number of branches where the target was incorrect or not available at prediction time. (Count)
system.node0.cpus0.branchPred.targetWrong_0::CallIndirect          157      0.48%    100.00% # Number of branches where the target was incorrect or not available at prediction time. (Count)
system.node0.cpus0.branchPred.targetWrong_0::DirectCond            0      0.00%    100.00% # Number of branches where the target was incorrect or not available at prediction time. (Count)
system.node0.cpus0.branchPred.targetWrong_0::DirectUncond            0      0.00%    100.00% # Number of branches where the target was incorrect or not available at prediction time. (Count)
system.node0.cpus0.branchPred.targetWrong_0::IndirectCond            0      0.00%    100.00% # Number of branches where the target was incorrect or not available at prediction time. (Count)
system.node0.cpus0.branchPred.targetWrong_0::IndirectUncond            0      0.00%    100.00% # Number of branches where the target was incorrect or not available at prediction time. (Count)
system.node0.cpus0.branchPred.targetWrong_0::total        32987                       # Number of branches where the target was incorrect or not available at prediction time. (Count)
system.node0.cpus0.branchPred.condPredicted       948583                       # Number of conditional branches predicted (Count)
system.node0.cpus0.branchPred.condPredictedTaken       629731                       # Number of conditional branches predicted as taken (Count)
system.node0.cpus0.branchPred.condIncorrect        31451                       # Number of conditional branches incorrect (Count)
system.node0.cpus0.branchPred.predTakenBTBMiss         2821                       # Number of branches predicted taken but missed in BTB (Count)
system.node0.cpus0.branchPred.BTBLookups      1059621                       # Number of BTB lookups (Count)
system.node0.cpus0.branchPred.BTBUpdates         8710                       # Number of BTB updates (Count)
system.node0.cpus0.branchPred.BTBHits          839413                       # Number of BTB hits (Count)
system.node0.cpus0.branchPred.BTBHitRatio     0.792182                       # BTB Hit Ratio (Ratio)
system.node0.cpus0.branchPred.BTBMispredicted         3809                       # Number BTB mispredictions. No target found or target wrong (Count)
system.node0.cpus0.branchPred.indirectLookups        17589                       # Number of indirect predictor lookups. (Count)
system.node0.cpus0.branchPred.indirectHits        11730                       # Number of indirect target hits. (Count)
system.node0.cpus0.branchPred.indirectMisses         5859                       # Number of indirect misses. (Count)
system.node0.cpus0.branchPred.indirectMispredicted            0                       # Number of mispredicted indirect branches. (Count)
system.node0.cpus0.branchPred.btb.lookups::NoBranch          499      0.05%      0.05% # Number of BTB lookups (Count)
system.node0.cpus0.branchPred.btb.lookups::Return        28806      2.72%      2.77% # Number of BTB lookups (Count)
system.node0.cpus0.branchPred.btb.lookups::CallDirect        28200      2.66%      5.43% # Number of BTB lookups (Count)
system.node0.cpus0.branchPred.btb.lookups::CallIndirect          914      0.09%      5.51% # Number of BTB lookups (Count)
system.node0.cpus0.branchPred.btb.lookups::DirectCond       948583     89.52%     95.03% # Number of BTB lookups (Count)
system.node0.cpus0.branchPred.btb.lookups::DirectUncond        35944      3.39%     98.43% # Number of BTB lookups (Count)
system.node0.cpus0.branchPred.btb.lookups::IndirectCond            0      0.00%     98.43% # Number of BTB lookups (Count)
system.node0.cpus0.branchPred.btb.lookups::IndirectUncond        16675      1.57%    100.00% # Number of BTB lookups (Count)
system.node0.cpus0.branchPred.btb.lookups::total      1059621                       # Number of BTB lookups (Count)
system.node0.cpus0.branchPred.btb.misses::NoBranch           94      0.04%      0.04% # Number of BTB misses (Count)
system.node0.cpus0.branchPred.btb.misses::Return        28806     13.08%     13.12% # Number of BTB misses (Count)
system.node0.cpus0.branchPred.btb.misses::CallDirect         1805      0.82%     13.94% # Number of BTB misses (Count)
system.node0.cpus0.branchPred.btb.misses::CallIndirect          914      0.42%     14.36% # Number of BTB misses (Count)
system.node0.cpus0.branchPred.btb.misses::DirectCond       170841     77.58%     91.94% # Number of BTB misses (Count)
system.node0.cpus0.branchPred.btb.misses::DirectUncond         1073      0.49%     92.43% # Number of BTB misses (Count)
system.node0.cpus0.branchPred.btb.misses::IndirectCond            0      0.00%     92.43% # Number of BTB misses (Count)
system.node0.cpus0.branchPred.btb.misses::IndirectUncond        16675      7.57%    100.00% # Number of BTB misses (Count)
system.node0.cpus0.branchPred.btb.misses::total       220208                       # Number of BTB misses (Count)
system.node0.cpus0.branchPred.btb.updates::NoBranch           61      0.70%      0.70% # Number of BTB updates (Count)
system.node0.cpus0.branchPred.btb.updates::Return            0      0.00%      0.70% # Number of BTB updates (Count)
system.node0.cpus0.branchPred.btb.updates::CallDirect         1218     13.98%     14.68% # Number of BTB updates (Count)
system.node0.cpus0.branchPred.btb.updates::CallIndirect            0      0.00%     14.68% # Number of BTB updates (Count)
system.node0.cpus0.branchPred.btb.updates::DirectCond         6695     76.87%     91.55% # Number of BTB updates (Count)
system.node0.cpus0.branchPred.btb.updates::DirectUncond          736      8.45%    100.00% # Number of BTB updates (Count)
system.node0.cpus0.branchPred.btb.updates::IndirectCond            0      0.00%    100.00% # Number of BTB updates (Count)
system.node0.cpus0.branchPred.btb.updates::IndirectUncond            0      0.00%    100.00% # Number of BTB updates (Count)
system.node0.cpus0.branchPred.btb.updates::total         8710                       # Number of BTB updates (Count)
system.node0.cpus0.branchPred.btb.mispredict::NoBranch           61      0.70%      0.70% # Number of BTB mispredictions. No target found or target wrong. (Count)
system.node0.cpus0.branchPred.btb.mispredict::Return            0      0.00%      0.70% # Number of BTB mispredictions. No target found or target wrong. (Count)
system.node0.cpus0.branchPred.btb.mispredict::CallDirect         1218     13.98%     14.68% # Number of BTB mispredictions. No target found or target wrong. (Count)
system.node0.cpus0.branchPred.btb.mispredict::CallIndirect            0      0.00%     14.68% # Number of BTB mispredictions. No target found or target wrong. (Count)
system.node0.cpus0.branchPred.btb.mispredict::DirectCond         6695     76.87%     91.55% # Number of BTB mispredictions. No target found or target wrong. (Count)
system.node0.cpus0.branchPred.btb.mispredict::DirectUncond          736      8.45%    100.00% # Number of BTB mispredictions. No target found or target wrong. (Count)
system.node0.cpus0.branchPred.btb.mispredict::IndirectCond            0      0.00%    100.00% # Number of BTB mispredictions. No target found or target wrong. (Count)
system.node0.cpus0.branchPred.btb.mispredict::IndirectUncond            0      0.00%    100.00% # Number of BTB mispredictions. No target found or target wrong. (Count)
system.node0.cpus0.branchPred.btb.mispredict::total         8710                       # Number of BTB mispredictions. No target found or target wrong. (Count)
system.node0.cpus0.branchPred.btb.power_state.pwrStateResidencyTicks::UNDEFINED  20861252250                       # Cumulative time (in ticks) in various power states (Tick)
system.node0.cpus0.branchPred.indirectBranchPred.lookups        17589                       # Number of lookups (Count)
system.node0.cpus0.branchPred.indirectBranchPred.hits        11730                       # Number of hits of a tag (Count)
system.node0.cpus0.branchPred.indirectBranchPred.misses         5859                       # Number of misses (Count)
system.node0.cpus0.branchPred.indirectBranchPred.targetRecords          805                       # Number of targets that where recorded/installed in the cache (Count)
system.node0.cpus0.branchPred.indirectBranchPred.indirectRecords        18394                       # Number of indirect branches/calls recorded in the indirect hist (Count)
system.node0.cpus0.branchPred.indirectBranchPred.speculativeOverflows           11                       # Number of times more than the allowed capacity for speculative branches/calls where in flight and destroy the path history (Count)
system.node0.cpus0.branchPred.ras.pushes        35779                       # Number of times a PC was pushed onto the RAS (Count)
system.node0.cpus0.branchPred.ras.pops          35774                       # Number of times a PC was poped from the RAS (Count)
system.node0.cpus0.branchPred.ras.squashes        13633                       # Number of times the stack operation was squashed due to wrong speculation. (Count)
system.node0.cpus0.branchPred.ras.used          22141                       # Number of times the RAS is the provider (Count)
system.node0.cpus0.branchPred.ras.correct        22141                       # Number of times the RAS is the provider and the prediction is correct (Count)
system.node0.cpus0.branchPred.ras.incorrect            0                       # Number of times the RAS is the provider and the prediction is wrong (Count)
system.node0.cpus0.clk_domain.clock               250                       # Clock period in ticks (Tick)
system.node0.cpus0.clk_domain.voltage_domain.voltage            1                       # Voltage in Volts (Volt)
system.node0.cpus0.commit.status::running     81179865     99.99%     99.99% # Number of cycles commit is running (Cycle)
system.node0.cpus0.commit.status::idle              1      0.00%     99.99% # Number of cycles commit is idle (Cycle)
system.node0.cpus0.commit.status::trapPending         8577      0.01%    100.00% # Number of cycles commit is processing a trap (Cycle)
system.node0.cpus0.commit.commitSquashedInsts       995681                       # The number of squashed insts skipped by commit (Count)
system.node0.cpus0.commit.commitNonSpecStalls         3514                       # The number of times commit has been forced to stall to communicate backwards (Count)
system.node0.cpus0.commit.branchMispredicts        31353                       # The number of times a branch was mispredicted (Count)
system.node0.cpus0.commit.numCommittedDist::samples     81155797                       # Number of insts commited each cycle (Count)
system.node0.cpus0.commit.numCommittedDist::mean     0.267615                       # Number of insts commited each cycle (Count)
system.node0.cpus0.commit.numCommittedDist::stdev     1.330686                       # Number of insts commited each cycle (Count)
system.node0.cpus0.commit.numCommittedDist::underflows            0      0.00%      0.00% # Number of insts commited each cycle (Count)
system.node0.cpus0.commit.numCommittedDist::0     77126940     95.04%     95.04% # Number of insts commited each cycle (Count)
system.node0.cpus0.commit.numCommittedDist::1       534057      0.66%     95.69% # Number of insts commited each cycle (Count)
system.node0.cpus0.commit.numCommittedDist::2       611951      0.75%     96.45% # Number of insts commited each cycle (Count)
system.node0.cpus0.commit.numCommittedDist::3       218857      0.27%     96.72% # Number of insts commited each cycle (Count)
system.node0.cpus0.commit.numCommittedDist::4       204561      0.25%     96.97% # Number of insts commited each cycle (Count)
system.node0.cpus0.commit.numCommittedDist::5       213945      0.26%     97.23% # Number of insts commited each cycle (Count)
system.node0.cpus0.commit.numCommittedDist::6       225463      0.28%     97.51% # Number of insts commited each cycle (Count)
system.node0.cpus0.commit.numCommittedDist::7        96963      0.12%     97.63% # Number of insts commited each cycle (Count)
system.node0.cpus0.commit.numCommittedDist::8      1923060      2.37%    100.00% # Number of insts commited each cycle (Count)
system.node0.cpus0.commit.numCommittedDist::overflows            0      0.00%    100.00% # Number of insts commited each cycle (Count)
system.node0.cpus0.commit.numCommittedDist::min_value            0                       # Number of insts commited each cycle (Count)
system.node0.cpus0.commit.numCommittedDist::max_value            8                       # Number of insts commited each cycle (Count)
system.node0.cpus0.commit.numCommittedDist::total     81155797                       # Number of insts commited each cycle (Count)
system.node0.cpus0.commit.amos                      0                       # Number of atomic instructions committed (Count)
system.node0.cpus0.commit.membars                2320                       # Number of memory barriers committed (Count)
system.node0.cpus0.commit.committedInstType_0::No_OpClass        51689      0.24%      0.24% # Class of committed instruction (Count)
system.node0.cpus0.commit.committedInstType_0::IntAlu      7712320     35.51%     35.75% # Class of committed instruction (Count)
system.node0.cpus0.commit.committedInstType_0::IntMult       118240      0.54%     36.29% # Class of committed instruction (Count)
system.node0.cpus0.commit.committedInstType_0::IntDiv         3221      0.01%     36.31% # Class of committed instruction (Count)
system.node0.cpus0.commit.committedInstType_0::FloatAdd       148847      0.69%     36.99% # Class of committed instruction (Count)
system.node0.cpus0.commit.committedInstType_0::FloatCmp            0      0.00%     36.99% # Class of committed instruction (Count)
system.node0.cpus0.commit.committedInstType_0::FloatCvt            0      0.00%     36.99% # Class of committed instruction (Count)
system.node0.cpus0.commit.committedInstType_0::FloatMult            0      0.00%     36.99% # Class of committed instruction (Count)
system.node0.cpus0.commit.committedInstType_0::FloatMultAcc            0      0.00%     36.99% # Class of committed instruction (Count)
system.node0.cpus0.commit.committedInstType_0::FloatDiv            0      0.00%     36.99% # Class of committed instruction (Count)
system.node0.cpus0.commit.committedInstType_0::FloatMisc            0      0.00%     36.99% # Class of committed instruction (Count)
system.node0.cpus0.commit.committedInstType_0::FloatSqrt            0      0.00%     36.99% # Class of committed instruction (Count)
system.node0.cpus0.commit.committedInstType_0::SimdAdd          272      0.00%     36.99% # Class of committed instruction (Count)
system.node0.cpus0.commit.committedInstType_0::SimdAddAcc            0      0.00%     36.99% # Class of committed instruction (Count)
system.node0.cpus0.commit.committedInstType_0::SimdAlu       138638      0.64%     37.63% # Class of committed instruction (Count)
system.node0.cpus0.commit.committedInstType_0::SimdCmp           16      0.00%     37.63% # Class of committed instruction (Count)
system.node0.cpus0.commit.committedInstType_0::SimdCvt         1372      0.01%     37.64% # Class of committed instruction (Count)
system.node0.cpus0.commit.committedInstType_0::SimdMisc        78379      0.36%     38.00% # Class of committed instruction (Count)
system.node0.cpus0.commit.committedInstType_0::SimdMult            0      0.00%     38.00% # Class of committed instruction (Count)
system.node0.cpus0.commit.committedInstType_0::SimdMultAcc            0      0.00%     38.00% # Class of committed instruction (Count)
system.node0.cpus0.commit.committedInstType_0::SimdMatMultAcc            0      0.00%     38.00% # Class of committed instruction (Count)
system.node0.cpus0.commit.committedInstType_0::SimdShift          918      0.00%     38.00% # Class of committed instruction (Count)
system.node0.cpus0.commit.committedInstType_0::SimdShiftAcc            0      0.00%     38.00% # Class of committed instruction (Count)
system.node0.cpus0.commit.committedInstType_0::SimdDiv            0      0.00%     38.00% # Class of committed instruction (Count)
system.node0.cpus0.commit.committedInstType_0::SimdSqrt            0      0.00%     38.00% # Class of committed instruction (Count)
system.node0.cpus0.commit.committedInstType_0::SimdFloatAdd      4383093     20.18%     58.19% # Class of committed instruction (Count)
system.node0.cpus0.commit.committedInstType_0::SimdFloatAlu            0      0.00%     58.19% # Class of committed instruction (Count)
system.node0.cpus0.commit.committedInstType_0::SimdFloatCmp        69636      0.32%     58.51% # Class of committed instruction (Count)
system.node0.cpus0.commit.committedInstType_0::SimdFloatCvt       105660      0.49%     58.99% # Class of committed instruction (Count)
system.node0.cpus0.commit.committedInstType_0::SimdFloatDiv           11      0.00%     58.99% # Class of committed instruction (Count)
system.node0.cpus0.commit.committedInstType_0::SimdFloatMisc            0      0.00%     58.99% # Class of committed instruction (Count)
system.node0.cpus0.commit.committedInstType_0::SimdFloatMult      1153959      5.31%     64.31% # Class of committed instruction (Count)
system.node0.cpus0.commit.committedInstType_0::SimdFloatMultAcc            0      0.00%     64.31% # Class of committed instruction (Count)
system.node0.cpus0.commit.committedInstType_0::SimdFloatMatMultAcc            0      0.00%     64.31% # Class of committed instruction (Count)
system.node0.cpus0.commit.committedInstType_0::SimdFloatSqrt            4      0.00%     64.31% # Class of committed instruction (Count)
system.node0.cpus0.commit.committedInstType_0::SimdReduceAdd            0      0.00%     64.31% # Class of committed instruction (Count)
system.node0.cpus0.commit.committedInstType_0::SimdReduceAlu            0      0.00%     64.31% # Class of committed instruction (Count)
system.node0.cpus0.commit.committedInstType_0::SimdReduceCmp            0      0.00%     64.31% # Class of committed instruction (Count)
system.node0.cpus0.commit.committedInstType_0::SimdFloatReduceAdd            0      0.00%     64.31% # Class of committed instruction (Count)
system.node0.cpus0.commit.committedInstType_0::SimdFloatReduceCmp            0      0.00%     64.31% # Class of committed instruction (Count)
system.node0.cpus0.commit.committedInstType_0::SimdAes            0      0.00%     64.31% # Class of committed instruction (Count)
system.node0.cpus0.commit.committedInstType_0::SimdAesMix            0      0.00%     64.31% # Class of committed instruction (Count)
system.node0.cpus0.commit.committedInstType_0::SimdSha1Hash            0      0.00%     64.31% # Class of committed instruction (Count)
system.node0.cpus0.commit.committedInstType_0::SimdSha1Hash2            0      0.00%     64.31% # Class of committed instruction (Count)
system.node0.cpus0.commit.committedInstType_0::SimdSha256Hash            0      0.00%     64.31% # Class of committed instruction (Count)
system.node0.cpus0.commit.committedInstType_0::SimdSha256Hash2            0      0.00%     64.31% # Class of committed instruction (Count)
system.node0.cpus0.commit.committedInstType_0::SimdShaSigma2            0      0.00%     64.31% # Class of committed instruction (Count)
system.node0.cpus0.commit.committedInstType_0::SimdShaSigma3            0      0.00%     64.31% # Class of committed instruction (Count)
system.node0.cpus0.commit.committedInstType_0::SimdSha3            0      0.00%     64.31% # Class of committed instruction (Count)
system.node0.cpus0.commit.committedInstType_0::SimdSm4e            0      0.00%     64.31% # Class of committed instruction (Count)
system.node0.cpus0.commit.committedInstType_0::SimdCrc            0      0.00%     64.31% # Class of committed instruction (Count)
system.node0.cpus0.commit.committedInstType_0::SimdPredAlu            0      0.00%     64.31% # Class of committed instruction (Count)
system.node0.cpus0.commit.committedInstType_0::SimdDotProd            0      0.00%     64.31% # Class of committed instruction (Count)
system.node0.cpus0.commit.committedInstType_0::Matrix            0      0.00%     64.31% # Class of committed instruction (Count)
system.node0.cpus0.commit.committedInstType_0::MatrixMov            0      0.00%     64.31% # Class of committed instruction (Count)
system.node0.cpus0.commit.committedInstType_0::MatrixOP            0      0.00%     64.31% # Class of committed instruction (Count)
system.node0.cpus0.commit.committedInstType_0::MemRead       658699      3.03%     67.34% # Class of committed instruction (Count)
system.node0.cpus0.commit.committedInstType_0::MemWrite       268038      1.23%     68.57% # Class of committed instruction (Count)
[...]
system.node1.mem_ctrl.dram.avgQLat            6545.17                       # Average queueing delay per DRAM burst ((Tick/Count))
system.node1.mem_ctrl.dram.avgBusLat          5000.00                       # Average bus latency per DRAM burst ((Tick/Count))
system.node1.mem_ctrl.dram.avgMemAccLat      25295.17                       # Average memory access latency per DRAM burst ((Tick/Count))
system.node1.mem_ctrl.dram.readRowHits          13948                       # Number of row buffer hits during reads (Count)
system.node1.mem_ctrl.dram.writeRowHits             0                       # Number of row buffer hits during writes (Count)
system.node1.mem_ctrl.dram.readRowHitRate        80.44                       # Row buffer hit rate for reads (Ratio)
system.node1.mem_ctrl.dram.writeRowHitRate          nan                       # Row buffer hit rate for writes (Ratio)
system.node1.mem_ctrl.dram.bytesPerActivate::samples         3392                       # Bytes accessed per row activation (Byte)
system.node1.mem_ctrl.dram.bytesPerActivate::mean   327.169811                       # Bytes accessed per row activation (Byte)
system.node1.mem_ctrl.dram.bytesPerActivate::gmean   294.681298                       # Bytes accessed per row activation (Byte)
system.node1.mem_ctrl.dram.bytesPerActivate::stdev   136.208314                       # Bytes accessed per row activation (Byte)
system.node1.mem_ctrl.dram.bytesPerActivate::64-127          111      3.27%      3.27% # Bytes accessed per row activation (Byte)
system.node1.mem_ctrl.dram.bytesPerActivate::128-191          174      5.13%      8.40% # Bytes accessed per row activation (Byte)
system.node1.mem_ctrl.dram.bytesPerActivate::192-255          449     13.24%     21.64% # Bytes accessed per row activation (Byte)
system.node1.mem_ctrl.dram.bytesPerActivate::256-319         1166     34.38%     56.01% # Bytes accessed per row activation (Byte)
system.node1.mem_ctrl.dram.bytesPerActivate::320-383           74      2.18%     58.20% # Bytes accessed per row activation (Byte)
system.node1.mem_ctrl.dram.bytesPerActivate::384-447          277      8.17%     66.36% # Bytes accessed per row activation (Byte)
system.node1.mem_ctrl.dram.bytesPerActivate::448-511          291      8.58%     74.94% # Bytes accessed per row activation (Byte)
system.node1.mem_ctrl.dram.bytesPerActivate::512-575          849     25.03%     99.97% # Bytes accessed per row activation (Byte)
system.node1.mem_ctrl.dram.bytesPerActivate::576-639            1      0.03%    100.00% # Bytes accessed per row activation (Byte)
system.node1.mem_ctrl.dram.bytesPerActivate::total         3392                       # Bytes accessed per row activation (Byte)
system.node1.mem_ctrl.dram.dramBytesRead      1109760                       # Total bytes read (Byte)
system.node1.mem_ctrl.dram.dramBytesWritten            0                       # Total bytes written (Byte)
system.node1.mem_ctrl.dram.avgRdBW          53.197190                       # Average DRAM read bandwidth in MiBytes/s ((Byte/Second))
system.node1.mem_ctrl.dram.avgWrBW                  0                       # Average DRAM write bandwidth in MiBytes/s ((Byte/Second))
system.node1.mem_ctrl.dram.peakBW            12800.00                       # Theoretical peak bandwidth in MiByte/s ((Byte/Second))
system.node1.mem_ctrl.dram.busUtil               0.42                       # Data bus utilization in percentage (Ratio)
system.node1.mem_ctrl.dram.busUtilRead           0.42                       # Data bus utilization in percentage for reads (Ratio)
system.node1.mem_ctrl.dram.busUtilWrite          0.00                       # Data bus utilization in percentage for writes (Ratio)
system.node1.mem_ctrl.dram.pageHitRate          80.44                       # Row buffer hit rate, read and write combined (Ratio)
system.node1.mem_ctrl.dram.power_state.pwrStateResidencyTicks::UNDEFINED  20861252250                       # Cumulative time (in ticks) in various power states (Tick)
system.node1.mem_ctrl.dram.rank0.actEnergy     24218880                       # Energy for activate commands per rank (pJ) (Joule)
system.node1.mem_ctrl.dram.rank0.preEnergy     12872640                       # Energy for precharge commands per rank (pJ) (Joule)
system.node1.mem_ctrl.dram.rank0.readEnergy    123807600                       # Energy for read commands per rank (pJ) (Joule)
system.node1.mem_ctrl.dram.rank0.writeEnergy            0                       # Energy for write commands per rank (pJ) (Joule)
system.node1.mem_ctrl.dram.rank0.refreshEnergy 1646620560.000000                       # Energy for refresh commands per rank (pJ) (Joule)
system.node1.mem_ctrl.dram.rank0.actBackEnergy   8034865350                       # Energy for active background per rank (pJ) (Joule)
system.node1.mem_ctrl.dram.rank0.preBackEnergy   1244518560                       # Energy for precharge background per rank (pJ) (Joule)
system.node1.mem_ctrl.dram.rank0.actPowerDownEnergy            0                       # Energy for active power-down per rank (pJ) (Joule)
system.node1.mem_ctrl.dram.rank0.prePowerDownEnergy            0                       # Energy for precharge power-down per rank (pJ) (Joule)
system.node1.mem_ctrl.dram.rank0.selfRefreshEnergy            0                       # Energy for self refresh per rank (pJ) (Joule)
system.node1.mem_ctrl.dram.rank0.totalEnergy  11086903590                       # Total energy per rank (pJ) (Joule)
system.node1.mem_ctrl.dram.rank0.averagePower   531.459160                       # Core power per rank (mW) (Watt)
system.node1.mem_ctrl.dram.rank0.totalIdleTime            0                       # Total Idle time Per DRAM Rank (Tick)
system.node1.mem_ctrl.dram.rank0.pwrStateTime::IDLE   3169016250                       # Time in different power states (Tick)
system.node1.mem_ctrl.dram.rank0.pwrStateTime::REF    696540000                       # Time in different power states (Tick)
system.node1.mem_ctrl.dram.rank0.pwrStateTime::SREF            0                       # Time in different power states (Tick)
system.node1.mem_ctrl.dram.rank0.pwrStateTime::PRE_PDN            0                       # Time in different power states (Tick)
system.node1.mem_ctrl.dram.rank0.pwrStateTime::ACT  16995696000                       # Time in different power states (Tick)
system.node1.mem_ctrl.dram.rank0.pwrStateTime::ACT_PDN            0                       # Time in different power states (Tick)
system.node1.mem_ctrl.power_state.pwrStateResidencyTicks::UNDEFINED  20861252250                       # Cumulative time (in ticks) in various power states (Tick)
system.node1.xbar.transDist::ReadResp           11155                       # Transaction distribution (Count)
system.node1.xbar.transDist::ReadExReq          18669                       # Transaction distribution (Count)
system.node1.xbar.transDist::ReadExResp         18669                       # Transaction distribution (Count)
system.node1.xbar.transDist::ReadSharedReq        11155                       # Transaction distribution (Count)
system.node1.xbar.pktCount_system.node1.cpus0.l2cache.mem_side_port::system.bridge1.cpu_side_port         3122                       # Packet count per connected requestor and responder (Count)
system.node1.xbar.pktCount_system.node1.cpus0.l2cache.mem_side_port::total         3122                       # Packet count per connected requestor and responder (Count)
system.node1.xbar.pktCount_system.node1.cpus1.l2cache.mem_side_port::system.bridge1.cpu_side_port         3122                       # Packet count per connected requestor and responder (Count)
system.node1.xbar.pktCount_system.node1.cpus1.l2cache.mem_side_port::total         3122                       # Packet count per connected requestor and responder (Count)
system.node1.xbar.pktCount_system.node1.cpus2.l2cache.mem_side_port::system.bridge1.cpu_side_port         3122                       # Packet count per connected requestor and responder (Count)
system.node1.xbar.pktCount_system.node1.cpus2.l2cache.mem_side_port::total         3122                       # Packet count per connected requestor and responder (Count)
system.node1.xbar.pktCount_system.node1.cpus3.l2cache.mem_side_port::system.bridge1.cpu_side_port         3124                       # Packet count per connected requestor and responder (Count)
system.node1.xbar.pktCount_system.node1.cpus3.l2cache.mem_side_port::total         3124                       # Packet count per connected requestor and responder (Count)
system.node1.xbar.pktCount_system.node1.cpus4.l2cache.mem_side_port::system.bridge1.cpu_side_port         3118                       # Packet count per connected requestor and responder (Count)
system.node1.xbar.pktCount_system.node1.cpus4.l2cache.mem_side_port::total         3118                       # Packet count per connected requestor and responder (Count)
system.node1.xbar.pktCount_system.node1.cpus5.l2cache.mem_side_port::system.bridge1.cpu_side_port         3118                       # Packet count per connected requestor and responder (Count)
system.node1.xbar.pktCount_system.node1.cpus5.l2cache.mem_side_port::total         3118                       # Packet count per connected requestor and responder (Count)
system.node1.xbar.pktCount_system.node1.cpus6.l2cache.mem_side_port::system.bridge1.cpu_side_port         3120                       # Packet count per connected requestor and responder (Count)
system.node1.xbar.pktCount_system.node1.cpus6.l2cache.mem_side_port::total         3120                       # Packet count per connected requestor and responder (Count)
system.node1.xbar.pktCount_system.node1.cpus7.l2cache.mem_side_port::system.bridge1.cpu_side_port         3122                       # Packet count per connected requestor and responder (Count)
system.node1.xbar.pktCount_system.node1.cpus7.l2cache.mem_side_port::total         3122                       # Packet count per connected requestor and responder (Count)
system.node1.xbar.pktCount_system.bridge0.mem_side_port::system.node1.mem_ctrl.port        34680                       # Packet count per connected requestor and responder (Count)
system.node1.xbar.pktCount_system.bridge0.mem_side_port::total        34680                       # Packet count per connected requestor and responder (Count)
system.node1.xbar.pktCount::total               59648                       # Packet count per connected requestor and responder (Count)
system.node1.xbar.pktSize_system.node1.cpus0.l2cache.mem_side_port::system.bridge1.cpu_side_port        99904                       # Cumulative packet size per connected requestor and responder (Byte)
system.node1.xbar.pktSize_system.node1.cpus0.l2cache.mem_side_port::total        99904                       # Cumulative packet size per connected requestor and responder (Byte)
system.node1.xbar.pktSize_system.node1.cpus1.l2cache.mem_side_port::system.bridge1.cpu_side_port        99904                       # Cumulative packet size per connected requestor and responder (Byte)
system.node1.xbar.pktSize_system.node1.cpus1.l2cache.mem_side_port::total        99904                       # Cumulative packet size per connected requestor and responder (Byte)
system.node1.xbar.pktSize_system.node1.cpus2.l2cache.mem_side_port::system.bridge1.cpu_side_port        99904                       # Cumulative packet size per connected requestor and responder (Byte)
system.node1.xbar.pktSize_system.node1.cpus2.l2cache.mem_side_port::total        99904                       # Cumulative packet size per connected requestor and responder (Byte)
system.node1.xbar.pktSize_system.node1.cpus3.l2cache.mem_side_port::system.bridge1.cpu_side_port        99968                       # Cumulative packet size per connected requestor and responder (Byte)
system.node1.xbar.pktSize_system.node1.cpus3.l2cache.mem_side_port::total        99968                       # Cumulative packet size per connected requestor and responder (Byte)
system.node1.xbar.pktSize_system.node1.cpus4.l2cache.mem_side_port::system.bridge1.cpu_side_port        99776                       # Cumulative packet size per connected requestor and responder (Byte)
system.node1.xbar.pktSize_system.node1.cpus4.l2cache.mem_side_port::total        99776                       # Cumulative packet size per connected requestor and responder (Byte)
system.node1.xbar.pktSize_system.node1.cpus5.l2cache.mem_side_port::system.bridge1.cpu_side_port        99776                       # Cumulative packet size per connected requestor and responder (Byte)
system.node1.xbar.pktSize_system.node1.cpus5.l2cache.mem_side_port::total        99776                       # Cumulative packet size per connected requestor and responder (Byte)
system.node1.xbar.pktSize_system.node1.cpus6.l2cache.mem_side_port::system.bridge1.cpu_side_port        99840                       # Cumulative packet size per connected requestor and responder (Byte)
system.node1.xbar.pktSize_system.node1.cpus6.l2cache.mem_side_port::total        99840                       # Cumulative packet size per connected requestor and responder (Byte)
system.node1.xbar.pktSize_system.node1.cpus7.l2cache.mem_side_port::system.bridge1.cpu_side_port        99904                       # Cumulative packet size per connected requestor and responder (Byte)
system.node1.xbar.pktSize_system.node1.cpus7.l2cache.mem_side_port::total        99904                       # Cumulative packet size per connected requestor and responder (Byte)
system.node1.xbar.pktSize_system.bridge0.mem_side_port::system.node1.mem_ctrl.port      1109760                       # Cumulative packet size per connected requestor and responder (Byte)
system.node1.xbar.pktSize_system.bridge0.mem_side_port::total      1109760                       # Cumulative packet size per connected requestor and responder (Byte)
system.node1.xbar.pktSize::total              1908736                       # Cumulative packet size per connected requestor and responder (Byte)
system.node1.xbar.snoops                            0                       # Total snoops (Count)
system.node1.xbar.snoopTraffic                      0                       # Total snoop traffic (Byte)
system.node1.xbar.snoopFanout::samples          34820                       # Request fanout histogram (Count)
system.node1.xbar.snoopFanout::mean                 0                       # Request fanout histogram (Count)
system.node1.xbar.snoopFanout::stdev                0                       # Request fanout histogram (Count)
system.node1.xbar.snoopFanout::underflows            0      0.00%      0.00% # Request fanout histogram (Count)
system.node1.xbar.snoopFanout::0                34820    100.00%    100.00% # Request fanout histogram (Count)
system.node1.xbar.snoopFanout::1                    0      0.00%    100.00% # Request fanout histogram (Count)
system.node1.xbar.snoopFanout::2                    0      0.00%    100.00% # Request fanout histogram (Count)
system.node1.xbar.snoopFanout::3                    0      0.00%    100.00% # Request fanout histogram (Count)
system.node1.xbar.snoopFanout::4                    0      0.00%    100.00% # Request fanout histogram (Count)
system.node1.xbar.snoopFanout::5                    0      0.00%    100.00% # Request fanout histogram (Count)
system.node1.xbar.snoopFanout::6                    0      0.00%    100.00% # Request fanout histogram (Count)
system.node1.xbar.snoopFanout::7                    0      0.00%    100.00% # Request fanout histogram (Count)
system.node1.xbar.snoopFanout::8                    0      0.00%    100.00% # Request fanout histogram (Count)
system.node1.xbar.snoopFanout::overflows            0      0.00%    100.00% # Request fanout histogram (Count)
system.node1.xbar.snoopFanout::min_value            0                       # Request fanout histogram (Count)
system.node1.xbar.snoopFanout::max_value            0                       # Request fanout histogram (Count)
system.node1.xbar.snoopFanout::total            34820                       # Request fanout histogram (Count)
system.node1.xbar.power_state.pwrStateResidencyTicks::UNDEFINED  20861252250                       # Cumulative time (in ticks) in various power states (Tick)
system.node1.xbar.reqLayer0.occupancy        22734000                       # Layer occupancy (ticks) (Tick)
system.node1.xbar.reqLayer0.utilization           0.0                       # Layer utilization (Ratio)
system.node1.xbar.reqLayer17.occupancy       19721250                       # Layer occupancy (ticks) (Tick)
system.node1.xbar.reqLayer17.utilization          0.0                       # Layer utilization (Ratio)
system.node1.xbar.respLayer1.occupancy        7805000                       # Layer occupancy (ticks) (Tick)
system.node1.xbar.respLayer1.utilization          0.0                       # Layer utilization (Ratio)
system.node1.xbar.respLayer13.occupancy       7810000                       # Layer occupancy (ticks) (Tick)
system.node1.xbar.respLayer13.utilization          0.0                       # Layer utilization (Ratio)
system.node1.xbar.respLayer17.occupancy       7795000                       # Layer occupancy (ticks) (Tick)
system.node1.xbar.respLayer17.utilization          0.0                       # Layer utilization (Ratio)
system.node1.xbar.respLayer21.occupancy       7795000                       # Layer occupancy (ticks) (Tick)
system.node1.xbar.respLayer21.utilization          0.0                       # Layer utilization (Ratio)
system.node1.xbar.respLayer25.occupancy       7800000                       # Layer occupancy (ticks) (Tick)
system.node1.xbar.respLayer25.utilization          0.0                       # Layer utilization (Ratio)
system.node1.xbar.respLayer29.occupancy       7805000                       # Layer occupancy (ticks) (Tick)
system.node1.xbar.respLayer29.utilization          0.0                       # Layer utilization (Ratio)
system.node1.xbar.respLayer32.occupancy      91145000                       # Layer occupancy (ticks) (Tick)
system.node1.xbar.respLayer32.utilization          0.0                       # Layer utilization (Ratio)
system.node1.xbar.respLayer5.occupancy        7805000                       # Layer occupancy (ticks) (Tick)
system.node1.xbar.respLayer5.utilization          0.0                       # Layer utilization (Ratio)
system.node1.xbar.respLayer9.occupancy        7805000                       # Layer occupancy (ticks) (Tick)
system.node1.xbar.respLayer9.utilization          0.0                       # Layer utilization (Ratio)
system.node1.xbar.snoop_filter.totRequests        17480                       # Total number of requests made to the snoop filter. (Count)
system.node1.xbar.snoop_filter.hitSingleRequests            0                       # Number of requests hitting in the snoop filter with a single holder of the requested data. (Count)
system.node1.xbar.snoop_filter.hitMultiRequests            0                       # Number of requests hitting in the snoop filter with multiple (>1) holders of the requested data. (Count)
system.node1.xbar.snoop_filter.totSnoops            0                       # Total number of snoops made to the snoop filter. (Count)
system.node1.xbar.snoop_filter.hitSingleSnoops            0                       # Number of snoops hitting in the snoop filter with a single holder of the requested data. (Count)
system.node1.xbar.snoop_filter.hitMultiSnoops            0                       # Number of snoops hitting in the snoop filter with multiple (>1) holders of the requested data. (Count)
system.workload.inst.arm                            0                       # number of arm instructions executed (Count)
system.workload.inst.quiesce                        0                       # number of quiesce instructions executed (Count)

---------- End Simulation Statistics   ----------
