
---------- Begin Simulation Statistics ----------
simSeconds                                   0.002106                       # Number of seconds simulated (Second)
simTicks                                   2105817250                       # Number of ticks simulated (Tick)
finalTick                                  2105817250                       # Number of ticks from beginning of simulation (restored from checkpoints and never reset) (Tick)
simFreq                                  1000000000000                       # The number of ticks per simulated second ((Tick/Second))
hostSeconds                                     48.85                       # Real time elapsed on the host (Second)
hostTickRate                                 43110162                       # The number of ticks simulated per host second (ticks/s) ((Tick/Second))
hostMemory                                    3122148                       # Number of bytes of host memory used (Byte)
simInsts                                     25314928                       # Number of instructions simulated (Count)
simOps                                       46812822                       # Number of ops (including micro ops) simulated (Count)
hostInstRate                                   518245                       # Simulator instruction rate (inst/s) ((Count/Second))
hostOpRate                                     958348                       # Simulator op (including micro ops) rate (op/s) ((Count/Second))
system.clk_domain.clock                          1000                       # Clock period in ticks (Tick)
system.clk_domain.voltage_domain.voltage            1                       # Voltage in Volts (Volt)
system.cpus0.numCycles                        8423270                       # Number of cpu cycles simulated (Cycle)
system.cpus0.cpi                             0.695132                       # CPI: cycles per instruction (core level) ((Cycle/Count))
system.cpus0.ipc                             1.438577                       # IPC: instructions per cycle (core level) ((Count/Cycle))
system.cpus0.numWorkItemsStarted                    0                       # Number of work items this cpu started (Count)
system.cpus0.numWorkItemsCompleted                  0                       # Number of work items this cpu completed (Count)
system.cpus0.instsAdded                      23591451                       # Number of instructions added to the IQ (excludes non-spec) (Count)
system.cpus0.nonSpecInstsAdded                   4482                       # Number of non-speculative instructions added to the IQ (Count)
system.cpus0.instsIssued                     23220718                       # Number of instructions issued (Count)
system.cpus0.squashedInstsIssued                31115                       # Number of squashed instructions issued (Count)
system.cpus0.squashedInstsExamined            1028849                       # Number of squashed instructions iterated over during squash; mainly for profiling (Count)
system.cpus0.squashedOperandsExamined         1830275                       # Number of squashed operands that are examined and possibly removed from graph (Count)
system.cpus0.squashedNonSpecRemoved               974                       # Number of squashed non-spec instructions that were removed (Count)
system.cpus0.numIssuedDist::samples           8056514                       # Number of insts issued each cycle (Count)
system.cpus0.numIssuedDist::mean             2.882229                       # Number of insts issued each cycle (Count)
system.cpus0.numIssuedDist::stdev            2.917003                       # Number of insts issued each cycle (Count)
system.cpus0.numIssuedDist::underflows              0      0.00%      0.00% # Number of insts issued each cycle (Count)
system.cpus0.numIssuedDist::0                 3273107     40.63%     40.63% # Number of insts issued each cycle (Count)
system.cpus0.numIssuedDist::1                  434189      5.39%     46.02% # Number of insts issued each cycle (Count)
system.cpus0.numIssuedDist::2                  457519      5.68%     51.70% # Number of insts issued each cycle (Count)
system.cpus0.numIssuedDist::3                  485461      6.03%     57.72% # Number of insts issued each cycle (Count)
system.cpus0.numIssuedDist::4                  634821      7.88%     65.60% # Number of insts issued each cycle (Count)
system.cpus0.numIssuedDist::5                  712851      8.85%     74.45% # Number of insts issued each cycle (Count)
system.cpus0.numIssuedDist::6                  736936      9.15%     83.60% # Number of insts issued each cycle (Count)
system.cpus0.numIssuedDist::7                  683087      8.48%     92.07% # Number of insts issued each cycle (Count)
system.cpus0.numIssuedDist::8                  638543      7.93%    100.00% # Number of insts issued each cycle (Count)
system.cpus0.numIssuedDist::overflows               0      0.00%    100.00% # Number of insts issued each cycle (Count)
system.cpus0.numIssuedDist::min_value               0                       # Number of insts issued each cycle (Count)
system.cpus0.numIssuedDist::max_value               8                       # Number of insts issued each cycle (Count)
system.cpus0.numIssuedDist::total             8056514                       # Number of insts issued each cycle (Count)
system.cpus0.statFuBusy::No_OpClass                 0      0.00%      0.00% # attempts to use FU when none available (Count)
system.cpus0.statFuBusy::IntAlu                115566      9.70%      9.70% # attempts to use FU when none available (Count)
system.cpus0.statFuBusy::IntMult                    0      0.00%      9.70% # attempts to use FU when none available (Count)
system.cpus0.statFuBusy::IntDiv                     0      0.00%      9.70% # attempts to use FU when none available (Count)
system.cpus0.statFuBusy::FloatAdd                   0      0.00%      9.70% # attempts to use FU when none available (Count)
system.cpus0.statFuBusy::FloatCmp                   0      0.00%      9.70% # attempts to use FU when none available (Count)
system.cpus0.statFuBusy::FloatCvt                   0      0.00%      9.70% # attempts to use FU when none available (Count)
system.cpus0.statFuBusy::FloatMult                  0      0.00%      9.70% # attempts to use FU when none available (Count)
system.cpus0.statFuBusy::FloatMultAcc               0      0.00%      9.70% # attempts to use FU when none available (Count)
system.cpus0.statFuBusy::FloatDiv                   0      0.00%      9.70% # attempts to use FU when none available (Count)
system.cpus0.statFuBusy::FloatMisc                  0      0.00%      9.70% # attempts to use FU when none available (Count)
system.cpus0.statFuBusy::FloatSqrt                  0      0.00%      9.70% # attempts to use FU when none available (Count)
system.cpus0.statFuBusy::SimdAdd                    0      0.00%      9.70% # attempts to use FU when none available (Count)
system.cpus0.statFuBusy::SimdAddAcc                 0      0.00%      9.70% # attempts to use FU when none available (Count)
system.cpus0.statFuBusy::SimdAlu                16811      1.41%     11.11% # attempts to use FU when none available (Count)
system.cpus0.statFuBusy::SimdCmp                    2      0.00%     11.11% # attempts to use FU when none available (Count)
system.cpus0.statFuBusy::SimdCvt                   12      0.00%     11.12% # attempts to use FU when none available (Count)
system.cpus0.statFuBusy::SimdMisc                  99      0.01%     11.12% # attempts to use FU when none available (Count)
system.cpus0.statFuBusy::SimdMult                   0      0.00%     11.12% # attempts to use FU when none available (Count)
system.cpus0.statFuBusy::SimdMultAcc                0      0.00%     11.12% # attempts to use FU when none available (Count)
system.cpus0.statFuBusy::SimdMatMultAcc             0      0.00%     11.12% # attempts to use FU when none available (Count)
system.cpus0.statFuBusy::SimdShift                  1      0.00%     11.12% # attempts to use FU when none available (Count)
system.cpus0.statFuBusy::SimdShiftAcc               0      0.00%     11.12% # attempts to use FU when none available (Count)
system.cpus0.statFuBusy::SimdDiv                    0      0.00%     11.12% # attempts to use FU when none available (Count)
system.cpus0.statFuBusy::SimdSqrt                   0      0.00%     11.12% # attempts to use FU when none available (Count)
system.cpus0.statFuBusy::SimdFloatAdd          143371     12.04%     23.16% # attempts to use FU when none available (Count)
system.cpus0.statFuBusy::SimdFloatAlu               0      0.00%     23.16% # attempts to use FU when none available (Count)
system.cpus0.statFuBusy::SimdFloatCmp            7278      0.61%     23.77% # attempts to use FU when none available (Count)
system.cpus0.statFuBusy::SimdFloatCvt               0      0.00%     23.77% # attempts to use FU when none available (Count)
system.cpus0.statFuBusy::SimdFloatDiv               0      0.00%     23.77% # attempts to use FU when none available (Count)
system.cpus0.statFuBusy::SimdFloatMisc              0      0.00%     23.77% # attempts to use FU when none available (Count)
system.cpus0.statFuBusy::SimdFloatMult          83024      6.97%     30.74% # attempts to use FU when none available (Count)
system.cpus0.statFuBusy::SimdFloatMultAcc            0      0.00%     30.74% # attempts to use FU when none available (Count)
system.cpus0.statFuBusy::SimdFloatMatMultAcc            0      0.00%     30.74% # attempts to use FU when none available (Count)
system.cpus0.statFuBusy::SimdFloatSqrt              0      0.00%     30.74% # attempts to use FU when none available (Count)
system.cpus0.statFuBusy::SimdReduceAdd              0      0.00%     30.74% # attempts to use FU when none available (Count)
system.cpus0.statFuBusy::SimdReduceAlu              0      0.00%     30.74% # attempts to use FU when none available (Count)
system.cpus0.statFuBusy::SimdReduceCmp              0      0.00%     30.74% # attempts to use FU when none available (Count)
system.cpus0.statFuBusy::SimdFloatReduceAdd            0      0.00%     30.74% # attempts to use FU when none available (Count)
system.cpus0.statFuBusy::SimdFloatReduceCmp            0      0.00%     30.74% # attempts to use FU when none available (Count)
system.cpus0.statFuBusy::SimdAes                    0      0.00%     30.74% # attempts to use FU when none available (Count)
system.cpus0.statFuBusy::SimdAesMix                 0      0.00%     30.74% # attempts to use FU when none available (Count)
system.cpus0.statFuBusy::SimdSha1Hash               0      0.00%     30.74% # attempts to use FU when none available (Count)
system.cpus0.statFuBusy::SimdSha1Hash2              0      0.00%     30.74% # attempts to use FU when none available (Count)
system.cpus0.statFuBusy::SimdSha256Hash             0      0.00%     30.74% # attempts to use FU when none available (Count)
system.cpus0.statFuBusy::SimdSha256Hash2            0      0.00%     30.74% # attempts to use FU when none available (Count)
system.cpus0.statFuBusy::SimdShaSigma2              0      0.00%     30.74% # attempts to use FU when none available (Count)
system.cpus0.statFuBusy::SimdShaSigma3              0      0.00%     30.74% # attempts to use FU when none available (Count)
system.cpus0.statFuBusy::SimdSha3                   0      0.00%     30.74% # attempts to use FU when none available (Count)
system.cpus0.statFuBusy::SimdSm4e                   0      0.00%     30.74% # attempts to use FU when none available (Count)
system.cpus0.statFuBusy::SimdCrc                    0      0.00%     30.74% # attempts to use FU when none available (Count)
system.cpus0.statFuBusy::SimdPredAlu                0      0.00%     30.74% # attempts to use FU when none available (Count)
system.cpus0.statFuBusy::SimdDotProd                0      0.00%     30.74% # attempts to use FU when none available (Count)
system.cpus0.statFuBusy::Matrix                     0      0.00%     30.74% # attempts to use FU when none available (Count)
system.cpus0.statFuBusy::MatrixMov                  0      0.00%     30.74% # attempts to use FU when none available (Count)
system.cpus0.statFuBusy::MatrixOP                   0      0.00%     30.74% # attempts to use FU when none available (Count)
system.cpus0.statFuBusy::MemRead                25666      2.15%     32.90% # attempts to use FU when none available (Count)
system.cpus0.statFuBusy::MemWrite                3942      0.33%     33.23% # attempts to use FU when none available (Count)
system.cpus0.statFuBusy::FloatMemRead          791445     66.45%     99.68% # attempts to use FU when none available (Count)
system.cpus0.statFuBusy::FloatMemWrite           3824      0.32%    100.00% # attempts to use FU when none available (Count)
system.cpus0.statFuBusy::InstPrefetch               0      0.00%    100.00% # attempts to use FU when none available (Count)
system.cpus0.statFuBusy::SimdUnitStrideLoad            0      0.00%    100.00% # attempts to use FU when none available (Count)
system.cpus0.statFuBusy::SimdUnitStrideStore            0      0.00%    100.00% # attempts to use FU when none available (Count)
system.cpus0.statFuBusy::SimdUnitStrideMaskLoad            0      0.00%    100.00% # attempts to use FU when none available (Count)
system.cpus0.statFuBusy::SimdUnitStrideMaskStore            0      0.00%    100.00% # attempts to use FU when none available (Count)
system.cpus0.statFuBusy::SimdStridedLoad            0      0.00%    100.00% # attempts to use FU when none available (Count)
system.cpus0.statFuBusy::SimdStridedStore            0      0.00%    100.00% # attempts to use FU when none available (Count)
system.cpus0.statFuBusy::SimdIndexedLoad            0      0.00%    100.00% # attempts to use FU when none available (Count)
system.cpus0.statFuBusy::SimdIndexedStore            0      0.00%    100.00% # attempts to use FU when none available (Count)
system.cpus0.statFuBusy::SimdWholeRegisterLoad            0      0.00%    100.00% # attempts to use FU when none available (Count)
system.cpus0.statFuBusy::SimdWholeRegisterStore            0      0.00%    100.00% # attempts to use FU when none available (Count)
system.cpus0.statFuBusy::SimdUnitStrideFaultOnlyFirstLoad            0      0.00%    100.00% # attempts to use FU when none available (Count)
system.cpus0.statFuBusy::SimdUnitStrideSegmentedLoad            0      0.00%    100.00% # attempts to use FU when none available (Count)
system.cpus0.statFuBusy::SimdUnitStrideSegmentedStore            0      0.00%    100.00% # attempts to use FU when none available (Count)
system.cpus0.statFuBusy::SimdUnitStrideSegmentedFaultOnlyFirstLoad            0      0.00%    100.00% # attempts to use FU when none available (Count)
system.cpus0.statFuBusy::SimdStrideSegmentedLoad            0      0.00%    100.00% # attempts to use FU when none available (Count)
system.cpus0.statFuBusy::SimdStrideSegmentedStore            0      0.00%    100.00% # attempts to use FU when none available (Count)
system.cpus0.statFuBusy::SimdExt                    0      0.00%    100.00% # attempts to use FU when none available (Count)
system.cpus0.statFuBusy::SimdFloatExt               0      0.00%    100.00% # attempts to use FU when none available (Count)
system.cpus0.statFuBusy::SimdConfig                 0      0.00%    100.00% # attempts to use FU when none available (Count)
system.cpus0.statFuBusy::SimdBf16Add                0      0.00%    100.00% # attempts to use FU when none available (Count)
system.cpus0.statFuBusy::SimdBf16Cmp                0      0.00%    100.00% # attempts to use FU when none available (Count)
system.cpus0.statFuBusy::SimdBf16Cvt                0      0.00%    100.00% # attempts to use FU when none available (Count)
system.cpus0.statFuBusy::SimdBf16DotProd            0      0.00%    100.00% # attempts to use FU when none available (Count)
system.cpus0.statFuBusy::SimdBf16MatMultAcc            0      0.00%    100.00% # attempts to use FU when none available (Count)
system.cpus0.statFuBusy::SimdBf16Mult               0      0.00%    100.00% # attempts to use FU when none available (Count)
system.cpus0.statFuBusy::SimdBf16MultAcc            0      0.00%    100.00% # attempts to use FU when none available (Count)
system.cpus0.statFuBusy::Bf16Cvt                    0      0.00%    100.00% # attempts to use FU when none available (Count)
system.cpus0.statFuBusy::System                     0      0.00%    100.00% # attempts to use FU when none available (Count)
system.cpus0.issuedInstType_0::No_OpClass        55654      0.24%      0.24% # Number of instructions issued per FU type, per thread (Count)
system.cpus0.issuedInstType_0::IntAlu         8736509     37.62%     37.86% # Number of instructions issued per FU type, per thread (Count)
system.cpus0.issuedInstType_0::IntMult         119560      0.51%     38.38% # Number of instructions issued per FU type, per thread (Count)
system.cpus0.issuedInstType_0::IntDiv            4898      0.02%     38.40% # Number of instructions issued per FU type, per thread (Count)
system.cpus0.issuedInstType_0::FloatAdd        157020      0.68%     39.08% # Number of instructions issued per FU type, per thread (Count)
system.cpus0.issuedInstType_0::FloatCmp             0      0.00%     39.08% # Number of instructions issued per FU type, per thread (Count)
system.cpus0.issuedInstType_0::FloatCvt             0      0.00%     39.08% # Number of instructions issued per FU type, per thread (Count)
system.cpus0.issuedInstType_0::FloatMult            0      0.00%     39.08% # Number of instructions issued per FU type, per thread (Count)
system.cpus0.issuedInstType_0::FloatMultAcc            0      0.00%     39.08% # Number of instructions issued per FU type, per thread (Count)
system.cpus0.issuedInstType_0::FloatDiv             0      0.00%     39.08% # Number of instructions issued per FU type, per thread (Count)
system.cpus0.issuedInstType_0::FloatMisc            0      0.00%     39.08% # Number of instructions issued per FU type, per thread (Count)
system.cpus0.issuedInstType_0::FloatSqrt            0      0.00%     39.08% # Number of instructions issued per FU type, per thread (Count)
system.cpus0.issuedInstType_0::SimdAdd            393      0.00%     39.08% # Number of instructions issued per FU type, per thread (Count)
system.cpus0.issuedInstType_0::SimdAddAcc            0      0.00%     39.08% # Number of instructions issued per FU type, per thread (Count)
system.cpus0.issuedInstType_0::SimdAlu         143815      0.62%     39.70% # Number of instructions issued per FU type, per thread (Count)
system.cpus0.issuedInstType_0::SimdCmp             29      0.00%     39.70% # Number of instructions issued per FU type, per thread (Count)
system.cpus0.issuedInstType_0::SimdCvt           1850      0.01%     39.70% # Number of instructions issued per FU type, per thread (Count)
system.cpus0.issuedInstType_0::SimdMisc         79449      0.34%     40.05% # Number of instructions issued per FU type, per thread (Count)
system.cpus0.issuedInstType_0::SimdMult             0      0.00%     40.05% # Number of instructions issued per FU type, per thread (Count)
system.cpus0.issuedInstType_0::SimdMultAcc            0      0.00%     40.05% # Number of instructions issued per FU type, per thread (Count)
system.cpus0.issuedInstType_0::SimdMatMultAcc            0      0.00%     40.05% # Number of instructions issued per FU type, per thread (Count)
system.cpus0.issuedInstType_0::SimdShift         1020      0.00%     40.05% # Number of instructions issued per FU type, per thread (Count)
system.cpus0.issuedInstType_0::SimdShiftAcc            0      0.00%     40.05% # Number of instructions issued per FU type, per thread (Count)
system.cpus0.issuedInstType_0::SimdDiv              0      0.00%     40.05% # Number of instructions issued per FU type, per thread (Count)
system.cpus0.issuedInstType_0::SimdSqrt             0      0.00%     40.05% # Number of instructions issued per FU type, per thread (Count)
system.cpus0.issuedInstType_0::SimdFloatAdd      4409902     18.99%     59.04% # Number of instructions issued per FU type, per thread (Count)
system.cpus0.issuedInstType_0::SimdFloatAlu            0      0.00%     59.04% # Number of instructions issued per FU type, per thread (Count)
system.cpus0.issuedInstType_0::SimdFloatCmp        71027      0.31%     59.35% # Number of instructions issued per FU type, per thread (Count)
system.cpus0.issuedInstType_0::SimdFloatCvt       108591      0.47%     59.82% # Number of instructions issued per FU type, per thread (Count)
system.cpus0.issuedInstType_0::SimdFloatDiv           18      0.00%     59.82% # Number of instructions issued per FU type, per thread (Count)
system.cpus0.issuedInstType_0::SimdFloatMisc            0      0.00%     59.82% # Number of instructions issued per FU type, per thread (Count)
system.cpus0.issuedInstType_0::SimdFloatMult      1164129      5.01%     64.83% # Number of instructions issued per FU type, per thread (Count)
system.cpus0.issuedInstType_0::SimdFloatMultAcc            0      0.00%     64.83% # Number of instructions issued per FU type, per thread (Count)
system.cpus0.issuedInstType_0::SimdFloatMatMultAcc            0      0.00%     64.83% # Number of instructions issued per FU type, per thread (Count)
system.cpus0.issuedInstType_0::SimdFloatSqrt            4      0.00%     64.83% # Number of instructions issued per FU type, per thread (Count)
system.cpus0.issuedInstType_0::SimdReduceAdd            0      0.00%     64.83% # Number of instructions issued per FU type, per thread (Count)
system.cpus0.issuedInstType_0::SimdReduceAlu            0      0.00%     64.83% # Number of instructions issued per FU type, per thread (Count)
system.cpus0.issuedInstType_0::SimdReduceCmp            0      0.00%     64.83% # Number of instructions issued per FU type, per thread (Count)
system.cpus0.issuedInstType_0::SimdFloatReduceAdd            0      0.00%     64.83% # Number of instructions issued per FU type, per thread (Count)
system.cpus0.issuedInstType_0::SimdFloatReduceCmp            0      0.00%     64.83% # Number of instructions issued per FU type, per thread (Count)
system.cpus0.issuedInstType_0::SimdAes              0      0.00%     64.83% # Number of instructions issued per FU type, per thread (Count)
system.cpus0.issuedInstType_0::SimdAesMix            0      0.00%     64.83% # Number of instructions issued per FU type, per thread (Count)
system.cpus0.issuedInstType_0::SimdSha1Hash            0      0.00%     64.83% # Number of instructions issued per FU type, per thread (Count)
system.cpus0.issuedInstType_0::SimdSha1Hash2            0      0.00%     64.83% # Number of instructions issued per FU type, per thread (Count)
system.cpus0.issuedInstType_0::SimdSha256Hash            0      0.00%     64.83% # Number of instructions issued per FU type, per thread (Count)
system.cpus0.issuedInstType_0::SimdSha256Hash2            0      0.00%     64.83% # Number of instructions issued per FU type, per thread (Count)
system.cpus0.issuedInstType_0::SimdShaSigma2            0      0.00%     64.83% # Number of instructions issued per FU type, per thread (Count)
system.cpus0.issuedInstType_0::SimdShaSigma3            0      0.00%     64.83% # Number of instructions issued per FU type, per thread (Count)
system.cpus0.issuedInstType_0::SimdSha3             0      0.00%     64.83% # Number of instructions issued per FU type, per thread (Count)
system.cpus0.issuedInstType_0::SimdSm4e             0      0.00%     64.83% # Number of instructions issued per FU type, per thread (Count)
system.cpus0.issuedInstType_0::SimdCrc              0      0.00%     64.83% # Number of instructions issued per FU type, per thread (Count)
system.cpus0.issuedInstType_0::SimdPredAlu            0      0.00%     64.83% # Number of instructions issued per FU type, per thread (Count)
system.cpus0.issuedInstType_0::SimdDotProd            0      0.00%     64.83% # Number of instructions issued per FU type, per thread (Count)
system.cpus0.issuedInstType_0::Matrix               0      0.00%     64.83% # Number of instructions issued per FU type, per thread (Count)
system.cpus0.issuedInstType_0::MatrixMov            0      0.00%     64.83% # Number of instructions issued per FU type, per thread (Count)
system.cpus0.issuedInstType_0::MatrixOP             0      0.00%     64.83% # Number of instructions issued per FU type, per thread (Count)
system.cpus0.issuedInstType_0::MemRead         768818      3.31%     68.14% # Number of instructions issued per FU type, per thread (Count)
system.cpus0.issuedInstType_0::MemWrite        283596      1.22%     69.36% # Number of instructions issued per FU type, per thread (Count)
system.cpus0.issuedInstType_0::FloatMemRead      5596741     24.10%     93.46% # Number of instructions issued per FU type, per thread (Count)
system.cpus0.issuedInstType_0::FloatMemWrite      1517695      6.54%    100.00% # Number of instructions issued per FU type, per thread (Count)
system.cpus0.issuedInstType_0::InstPrefetch            0      0.00%    100.00% # Number of instructions issued per FU type, per thread (Count)
system.cpus0.issuedInstType_0::SimdUnitStrideLoad            0      0.00%    100.00% # Number of instructions issued per FU type, per thread (Count)
system.cpus0.issuedInstType_0::SimdUnitStrideStore            0      0.00%    100.00% # Number of instructions issued per FU type, per thread (Count)
system.cpus0.issuedInstType_0::SimdUnitStrideMaskLoad            0      0.00%    100.00% # Number of instructions issued per FU type, per thread (Count)
system.cpus0.issuedInstType_0::SimdUnitStrideMaskStore            0      0.00%    100.00% # Number of instructions issued per FU type, per thread (Count)
system.cpus0.issuedInstType_0::SimdStridedLoad            0      0.00%    100.00% # Number of instructions issued per FU type, per thread (Count)
system.cpus0.issuedInstType_0::SimdStridedStore            0      0.00%    100.00% # Number of instructions issued per FU type, per thread (Count)
system.cpus0.issuedInstType_0::SimdIndexedLoad            0      0.00%    100.00% # Number of instructions issued per FU type, per thread (Count)
system.cpus0.issuedInstType_0::SimdIndexedStore            0      0.00%    100.00% # Number of instructions issued per FU type, per thread (Count)
system.cpus0.issuedInstType_0::SimdWholeRegisterLoad            0      0.00%    100.00% # Number of instructions issued per FU type, per thread (Count)
system.cpus0.issuedInstType_0::SimdWholeRegisterStore            0      0.00%    100.00% # Number of instructions issued per FU type, per thread (Count)
system.cpus0.issuedInstType_0::SimdUnitStrideFaultOnlyFirstLoad            0      0.00%    100.00% # Number of instructions issued per FU type, per thread (Count)
system.cpus0.issuedInstType_0::SimdUnitStrideSegmentedLoad            0      0.00%    100.00% # Number of instructions issued per FU type, per thread (Count)
system.cpus0.issuedInstType_0::SimdUnitStrideSegmentedStore            0      0.00%    100.00% # Number of instructions issued per FU type, per thread (Count)
system.cpus0.issuedInstType_0::SimdUnitStrideSegmentedFaultOnlyFirstLoad            0      0.00%    100.00% # Number of instructions issued per FU type, per thread (Count)
system.cpus0.issuedInstType_0::SimdStrideSegmentedLoad            0      0.00%    100.00% # Number of instructions issued per FU type, per thread (Count)
system.cpus0.issuedInstType_0::SimdStrideSegmentedStore            0      0.00%    100.00% # Number of instructions issued per FU type, per thread (Count)
system.cpus0.issuedInstType_0::SimdExt              0      0.00%    100.00% # Number of instructions issued per FU type, per thread (Count)
system.cpus0.issuedInstType_0::SimdFloatExt            0      0.00%    100.00% # Number of instructions issued per FU type, per thread (Count)
system.cpus0.issuedInstType_0::SimdConfig            0      0.00%    100.00% # Number of instructions issued per FU type, per thread (Count)
system.cpus0.issuedInstType_0::SimdBf16Add            0      0.00%    100.00% # Number of instructions issued per FU type, per thread (Count)
system.cpus0.issuedInstType_0::SimdBf16Cmp            0      0.00%    100.00% # Number of instructions issued per FU type, per thread (Count)
system.cpus0.issuedInstType_0::SimdBf16Cvt            0      0.00%    100.00% # Number of instructions issued per FU type, per thread (Count)
system.cpus0.issuedInstType_0::SimdBf16DotProd            0      0.00%    100.00% # Number of instructions issued per FU type, per thread (Count)
system.cpus0.issuedInstType_0::SimdBf16MatMultAcc            0      0.00%    100.00% # Number of instructions issued per FU type, per thread (Count)
system.cpus0.issuedInstType_0::SimdBf16Mult            0      0.00%    100.00% # Number of instructions issued per FU type, per thread (Count)
system.cpus0.issuedInstType_0::SimdBf16MultAcc            0      0.00%    100.00% # Number of instructions issued per FU type, per thread (Count)
system.cpus0.issuedInstType_0::Bf16Cvt              0      0.00%    100.00% # Number of instructions issued per FU type, per thread (Count)
system.cpus0.issuedInstType_0::System               0      0.00%    100.00% # Number of instructions issued per FU type, per thread (Count)
system.cpus0.issuedInstType_0::total         23220718                       # Number of instructions issued per FU type, per thread (Count)
system.cpus0.issueRate                       2.756734                       # Inst issue rate ((Count/Cycle))
system.cpus0.fuBusy                           1191041                       # FU busy when requested (Count)
system.cpus0.fuBusyRate                      0.051292                       # FU busy rate (busy events/executed inst) ((Count/Count))
system.cpus0.intInstQueueReads               26360872                       # Number of integer instruction queue reads (Count)
system.cpus0.intInstQueueWrites               9684649                       # Number of integer instruction queue writes (Count)
system.cpus0.intInstQueueWakeupAccesses       9004484                       # Number of integer instruction queue wakeup accesses (Count)
system.cpus0.fpInstQueueReads                29359227                       # Number of floating instruction queue reads (Count)
system.cpus0.fpInstQueueWrites               14940707                       # Number of floating instruction queue writes (Count)
system.cpus0.fpInstQueueWakeupAccesses       13969962                       # Number of floating instruction queue wakeup accesses (Count)
system.cpus0.vecInstQueueReads                      0                       # Number of vector instruction queue reads (Count)
system.cpus0.vecInstQueueWrites                     0                       # Number of vector instruction queue writes (Count)
system.cpus0.vecInstQueueWakeupAccesses             0                       # Number of vector instruction queue wakeup accesses (Count)
system.cpus0.intAluAccesses                   9162507                       # Number of integer alu accesses (Count)
system.cpus0.fpAluAccesses                   15193598                       # Number of floating point alu accesses (Count)
system.cpus0.vecAluAccesses                         0                       # Number of vector alu accesses (Count)
system.cpus0.numRecvResp                      8011912                       # Number of received responses (Count)
system.cpus0.numRecvRespBytes                62549417                       # Number of received response bytes (Byte)
system.cpus0.recvRespAvgBW                       7.43                       # Average bandwidth of received responses ((Byte/Cycle))
system.cpus0.recvRespAvgSize                     7.81                       # Average packet size per received response ((Byte/Count))
system.cpus0.recvRespAvgRate                     0.95                       # Average rate of received responses per cycle ((Count/Cycle))
system.cpus0.recvRespAvgRetryRate                0.00                       # Average retry rate per received response ((Count/Count))
system.cpus0.numSendRetryResp                       0                       # Number of retry responses sent (Count)
system.cpus0.numSquashedInsts                  136795                       # Number of squashed instructions skipped in execute (Count)
system.cpus0.numSwp                                 0                       # Number of swp insts executed (Count)
system.cpus0.timesIdled                          1831                       # Number of times that the entire CPU went into an idle state and unscheduled itself (Count)
system.cpus0.idleCycles                        366756                       # Total number of cycles that the CPU has spent unscheduled due to idling (Cycle)
system.cpus0.MemDepUnit__0.insertedLoads      6397254                       # Number of loads inserted to the mem dependence unit. (Count)
system.cpus0.MemDepUnit__0.insertedStores      1843708                       # Number of stores inserted to the mem dependence unit. (Count)
system.cpus0.MemDepUnit__0.conflictingLoads       390659                       # Number of conflicting loads. (Count)
system.cpus0.MemDepUnit__0.conflictingStores       325176                       # Number of conflicting stores. (Count)
system.cpus0.MemDepUnit__1.insertedLoads            0                       # Number of loads inserted to the mem dependence unit. (Count)
system.cpus0.MemDepUnit__1.insertedStores            0                       # Number of stores inserted to the mem dependence unit. (Count)
system.cpus0.MemDepUnit__1.conflictingLoads            0                       # Number of conflicting loads. (Count)
system.cpus0.MemDepUnit__1.conflictingStores            0                       # Number of conflicting stores. (Count)
system.cpus0.MemDepUnit__2.insertedLoads            0                       # Number of loads inserted to the mem dependence unit. (Count)
system.cpus0.MemDepUnit__2.insertedStores            0                       # Number of stores inserted to the mem dependence unit. (Count)
system.cpus0.MemDepUnit__2.conflictingLoads            0                       # Number of conflicting loads. (Count)
system.cpus0.MemDepUnit__2.conflictingStores            0                       # Number of conflicting stores. (Count)
system.cpus0.MemDepUnit__3.insertedLoads            0                       # Number of loads inserted to the mem dependence unit. (Count)
system.cpus0.MemDepUnit__3.insertedStores            0                       # Number of stores inserted to the mem dependence unit. (Count)
system.cpus0.MemDepUnit__3.conflictingLoads            0                       # Number of conflicting loads. (Count)
system.cpus0.MemDepUnit__3.conflictingStores            0                       # Number of conflicting stores. (Count)
system.cpus0.bac.fetchTargets                       0                       # Number of fetch targets created  (Count)
system.cpus0.bac.branches                     1195088                       # Number of branches that BAC encountered (Count)
system.cpus0.bac.predTakenBranches             799012                       # Number of branches that BAC predicted taken. (Count)
system.cpus0.bac.branchesNotLastuOp                 0                       # Number of branches that fetch encountered which are not the last uOp within a macrooperation. Jump to itself. (Count)
system.cpus0.bac.branchMisspredict              33232                       # Number of mispredicted branches (Count)
system.cpus0.bac.noBranchMisspredict             1327                       # Number of non-branch instructions mispredicted (Count)
system.cpus0.bac.squashBranchDecode              1984                       # Number of branches squashed from decode (Count)
system.cpus0.bac.squashBranchCommit             31248                       # Number of branches squashed from commit (Count)
system.cpus0.bac.preDecUpdate::NoBranch             0                       # Number of branches extracted from the predecoder (Count)
system.cpus0.bac.preDecUpdate::Return               0                       # Number of branches extracted from the predecoder (Count)
system.cpus0.bac.preDecUpdate::CallDirect            0                       # Number of branches extracted from the predecoder (Count)
system.cpus0.bac.preDecUpdate::CallIndirect            0                       # Number of branches extracted from the predecoder (Count)
system.cpus0.bac.preDecUpdate::DirectCond            0                       # Number of branches extracted from the predecoder (Count)
system.cpus0.bac.preDecUpdate::DirectUncond            0                       # Number of branches extracted from the predecoder (Count)
system.cpus0.bac.preDecUpdate::IndirectCond            0                       # Number of branches extracted from the predecoder (Count)
system.cpus0.bac.preDecUpdate::IndirectUncond            0                       # Number of branches extracted from the predecoder (Count)
system.cpus0.bac.preDecUpdate::total                0                       # Number of branches extracted from the predecoder (Count)
system.cpus0.bac.noHistByType::NoBranch             0                       # Number and type of branches that were undetected by the BPU. (Count)
system.cpus0.bac.noHistByType::Return               0                       # Number and type of branches that were undetected by the BPU. (Count)
system.cpus0.bac.noHistByType::CallDirect            0                       # Number and type of branches that were undetected by the BPU. (Count)
system.cpus0.bac.noHistByType::CallIndirect            0                       # Number and type of branches that were undetected by the BPU. (Count)
system.cpus0.bac.noHistByType::DirectCond            0                       # Number and type of branches that were undetected by the BPU. (Count)
system.cpus0.bac.noHistByType::DirectUncond            0                       # Number and type of branches that were undetected by the BPU. (Count)
system.cpus0.bac.noHistByType::IndirectCond            0                       # Number and type of branches that were undetected by the BPU. (Count)
system.cpus0.bac.noHistByType::IndirectUncond            0                       # Number and type of branches that were undetected by the BPU. (Count)
system.cpus0.bac.noHistByType::total                0                       # Number and type of branches that were undetected by the BPU. (Count)
system.cpus0.bac.typeMissmatch                      0                       # Number branches where the branch type miss match (Count)
system.cpus0.bac.multiBranchInst                    0                       # Number branches because its not the last branch. (Count)
system.cpus0.bac.ftSizeDist::samples                0                       # Number of bytes per fetch target (Count)
system.cpus0.bac.ftSizeDist::mean                 nan                       # Number of bytes per fetch target (Count)
system.cpus0.bac.ftSizeDist::stdev                nan                       # Number of bytes per fetch target (Count)
system.cpus0.bac.ftSizeDist::underflows             0                       # Number of bytes per fetch target (Count)
system.cpus0.bac.ftSizeDist::0-3                    0                       # Number of bytes per fetch target (Count)
system.cpus0.bac.ftSizeDist::4-7                    0                       # Number of bytes per fetch target (Count)
system.cpus0.bac.ftSizeDist::8-11                   0                       # Number of bytes per fetch target (Count)
system.cpus0.bac.ftSizeDist::12-15                  0                       # Number of bytes per fetch target (Count)
system.cpus0.bac.ftSizeDist::16-19                  0                       # Number of bytes per fetch target (Count)
system.cpus0.bac.ftSizeDist::20-23                  0                       # Number of bytes per fetch target (Count)
system.cpus0.bac.ftSizeDist::24-27                  0                       # Number of bytes per fetch target (Count)
system.cpus0.bac.ftSizeDist::28-31                  0                       # Number of bytes per fetch target (Count)
system.cpus0.bac.ftSizeDist::32                     0                       # Number of bytes per fetch target (Count)
system.cpus0.bac.ftSizeDist::overflows              0                       # Number of bytes per fetch target (Count)
system.cpus0.bac.ftSizeDist::min_value              0                       # Number of bytes per fetch target (Count)
system.cpus0.bac.ftSizeDist::max_value              0                       # Number of bytes per fetch target (Count)
system.cpus0.bac.ftSizeDist::total                  0                       # Number of bytes per fetch target (Count)
system.cpus0.bac.ftNumber::samples                  0                       # Number of fetch target inserted to the FTQ per cycle (Count)
system.cpus0.bac.ftNumber::mean                   nan                       # Number of fetch target inserted to the FTQ per cycle (Count)
system.cpus0.bac.ftNumber::stdev                  nan                       # Number of fetch target inserted to the FTQ per cycle (Count)
system.cpus0.bac.ftNumber::underflows               0                       # Number of fetch target inserted to the FTQ per cycle (Count)
system.cpus0.bac.ftNumber::0                        0                       # Number of fetch target inserted to the FTQ per cycle (Count)
system.cpus0.bac.ftNumber::1                        0                       # Number of fetch target inserted to the FTQ per cycle (Count)
system.cpus0.bac.ftNumber::2                        0                       # Number of fetch target inserted to the FTQ per cycle (Count)
system.cpus0.bac.ftNumber::3                        0                       # Number of fetch target inserted to the FTQ per cycle (Count)
system.cpus0.bac.ftNumber::4                        0                       # Number of fetch target inserted to the FTQ per cycle (Count)
system.cpus0.bac.ftNumber::overflows                0                       # Number of fetch target inserted to the FTQ per cycle (Count)
system.cpus0.bac.ftNumber::min_value                0                       # Number of fetch target inserted to the FTQ per cycle (Count)
system.cpus0.bac.ftNumber::max_value                0                       # Number of fetch target inserted to the FTQ per cycle (Count)
system.cpus0.bac.ftNumber::total                    0                       # Number of fetch target inserted to the FTQ per cycle (Count)
system.cpus0.branchPred.lookups_0::NoBranch          276      0.02%      0.02% # Number of BP lookups (Count)
system.cpus0.branchPred.lookups_0::Return        28387      2.38%      2.40% # Number of BP lookups (Count)
system.cpus0.branchPred.lookups_0::CallDirect        27930      2.34%      4.74% # Number of BP lookups (Count)
system.cpus0.branchPred.lookups_0::CallIndirect          907      0.08%      4.81% # Number of BP lookups (Count)
system.cpus0.branchPred.lookups_0::DirectCond      1085110     90.80%     95.61% # Number of BP lookups (Count)
system.cpus0.branchPred.lookups_0::DirectUncond        35445      2.97%     98.57% # Number of BP lookups (Count)
system.cpus0.branchPred.lookups_0::IndirectCond            0      0.00%     98.57% # Number of BP lookups (Count)
system.cpus0.branchPred.lookups_0::IndirectUncond        17033      1.43%    100.00% # Number of BP lookups (Count)
system.cpus0.branchPred.lookups_0::total      1195088                       # Number of BP lookups (Count)
system.cpus0.branchPred.squashes_0::NoBranch          268      0.21%      0.21% # Number of branches that got squashed (completely removed) as an earlier branch was mispredicted. (Count)
system.cpus0.branchPred.squashes_0::Return         6207      4.92%      5.13% # Number of branches that got squashed (completely removed) as an earlier branch was mispredicted. (Count)
system.cpus0.branchPred.squashes_0::CallDirect         6097      4.83%      9.96% # Number of branches that got squashed (completely removed) as an earlier branch was mispredicted. (Count)
system.cpus0.branchPred.squashes_0::CallIndirect          555      0.44%     10.40% # Number of branches that got squashed (completely removed) as an earlier branch was mispredicted. (Count)
system.cpus0.branchPred.squashes_0::DirectCond       102306     81.02%     91.41% # Number of branches that got squashed (completely removed) as an earlier branch was mispredicted. (Count)
system.cpus0.branchPred.squashes_0::DirectUncond         4750      3.76%     95.17% # Number of branches that got squashed (completely removed) as an earlier branch was mispredicted. (Count)
system.cpus0.branchPred.squashes_0::IndirectCond            0      0.00%     95.17% # Number of branches that got squashed (completely removed) as an earlier branch was mispredicted. (Count)
system.cpus0.branchPred.squashes_0::IndirectUncond         6093      4.83%    100.00% # Number of branches that got squashed (completely removed) as an earlier branch was mispredicted. (Count)
system.cpus0.branchPred.squashes_0::total       126276                       # Number of branches that got squashed (completely removed) as an earlier branch was mispredicted. (Count)
system.cpus0.branchPred.corrected_0::NoBranch           43      0.13%      0.13% # Number of branches that got corrected but not yet commited. Branches get corrected by decode or after execute. Also a branch misprediction can be detected out-of-order. Therefore, a corrected branch might not end up beeing committed in case an even earlier branch was mispredicted (Count)
system.cpus0.branchPred.corrected_0::Return            7      0.02%      0.15% # Number of branches that got corrected but not yet commited. Branches get corrected by decode or after execute. Also a branch misprediction can be detected out-of-order. Therefore, a corrected branch might not end up beeing committed in case an even earlier branch was mispredicted (Count)
system.cpus0.branchPred.corrected_0::CallDirect         1202      3.62%      3.77% # Number of branches that got corrected but not yet commited. Branches get corrected by decode or after execute. Also a branch misprediction can be detected out-of-order. Therefore, a corrected branch might not end up beeing committed in case an even earlier branch was mispredicted (Count)
system.cpus0.branchPred.corrected_0::CallIndirect          181      0.54%      4.31% # Number of branches that got corrected but not yet commited. Branches get corrected by decode or after execute. Also a branch misprediction can be detected out-of-order. Therefore, a corrected branch might not end up beeing committed in case an even earlier branch was mispredicted (Count)
system.cpus0.branchPred.corrected_0::DirectCond        30430     91.57%     95.88% # Number of branches that got corrected but not yet commited. Branches get corrected by decode or after execute. Also a branch misprediction can be detected out-of-order. Therefore, a corrected branch might not end up beeing committed in case an even earlier branch was mispredicted (Count)
system.cpus0.branchPred.corrected_0::DirectUncond          742      2.23%     98.11% # Number of branches that got corrected but not yet commited. Branches get corrected by decode or after execute. Also a branch misprediction can be detected out-of-order. Therefore, a corrected branch might not end up beeing committed in case an even earlier branch was mispredicted (Count)
system.cpus0.branchPred.corrected_0::IndirectCond            0      0.00%     98.11% # Number of branches that got corrected but not yet commited. Branches get corrected by decode or after execute. Also a branch misprediction can be detected out-of-order. Therefore, a corrected branch might not end up beeing committed in case an even earlier branch was mispredicted (Count)
system.cpus0.branchPred.corrected_0::IndirectUncond          627      1.89%    100.00% # Number of branches that got corrected but not yet commited. Branches get corrected by decode or after execute. Also a branch misprediction can be detected out-of-order. Therefore, a corrected branch might not end up beeing committed in case an even earlier branch was mispredicted (Count)
system.cpus0.branchPred.corrected_0::total        33232                       # Number of branches that got corrected but not yet commited. Branches get corrected by decode or after execute. Also a branch misprediction can be detected out-of-order. Therefore, a corrected branch might not end up beeing committed in case an even earlier branch was mispredicted (Count)
system.cpus0.branchPred.earlyResteers_0::NoBranch            0      0.00%      0.00% # Number of branches that got redirected after decode. (Count)
system.cpus0.branchPred.earlyResteers_0::Return            0      0.00%      0.00% # Number of branches that got redirected after decode. (Count)
system.cpus0.branchPred.earlyResteers_0::CallDirect         1202     60.58%     60.58% # Number of branches that got redirected after decode. (Count)
system.cpus0.branchPred.earlyResteers_0::CallIndirect            0      0.00%     60.58% # Number of branches that got redirected after decode. (Count)
system.cpus0.branchPred.earlyResteers_0::DirectCond           40      2.02%     62.60% # Number of branches that got redirected after decode. (Count)
system.cpus0.branchPred.earlyResteers_0::DirectUncond          742     37.40%    100.00% # Number of branches that got redirected after decode. (Count)
system.cpus0.branchPred.earlyResteers_0::IndirectCond            0      0.00%    100.00% # Number of branches that got redirected after decode. (Count)
system.cpus0.branchPred.earlyResteers_0::IndirectUncond            0      0.00%    100.00% # Number of branches that got redirected after decode. (Count)
system.cpus0.branchPred.earlyResteers_0::total         1984                       # Number of branches that got redirected after decode. (Count)
system.cpus0.branchPred.committed_0::NoBranch            8      0.00%      0.00% # Number of branches finally committed  (Count)
system.cpus0.branchPred.committed_0::Return        22180      2.08%      2.08% # Number of branches finally committed  (Count)
system.cpus0.branchPred.committed_0::CallDirect        21833      2.04%      4.12% # Number of branches finally committed  (Count)
system.cpus0.branchPred.committed_0::CallIndirect          352      0.03%      4.15% # Number of branches finally committed  (Count)
system.cpus0.branchPred.committed_0::DirectCond       982796     91.95%     96.10% # Number of branches finally committed  (Count)
system.cpus0.branchPred.committed_0::DirectUncond        30693      2.87%     98.98% # Number of branches finally committed  (Count)
system.cpus0.branchPred.committed_0::IndirectCond            0      0.00%     98.98% # Number of branches finally committed  (Count)
system.cpus0.branchPred.committed_0::IndirectUncond        10940      1.02%    100.00% # Number of branches finally committed  (Count)
system.cpus0.branchPred.committed_0::total      1068802                       # Number of branches finally committed  (Count)
system.cpus0.branchPred.mispredicted_0::NoBranch            8      0.03%      0.03% # Number of committed branches that were mispredicted. (Count)
system.cpus0.branchPred.mispredicted_0::Return            0      0.00%      0.03% # Number of committed branches that were mispredicted. (Count)
system.cpus0.branchPred.mispredicted_0::CallDirect          723      2.28%      2.31% # Number of committed branches that were mispredicted. (Count)
system.cpus0.branchPred.mispredicted_0::CallIndirect           93      0.29%      2.60% # Number of committed branches that were mispredicted. (Count)
system.cpus0.branchPred.mispredicted_0::DirectCond        29840     94.23%     96.84% # Number of committed branches that were mispredicted. (Count)
system.cpus0.branchPred.mispredicted_0::DirectUncond          453      1.43%     98.27% # Number of committed branches that were mispredicted. (Count)
system.cpus0.branchPred.mispredicted_0::IndirectCond            0      0.00%     98.27% # Number of committed branches that were mispredicted. (Count)
system.cpus0.branchPred.mispredicted_0::IndirectUncond          549      1.73%    100.00% # Number of committed branches that were mispredicted. (Count)
system.cpus0.branchPred.mispredicted_0::total        31666                       # Number of committed branches that were mispredicted. (Count)
system.cpus0.branchPred.mispredictDueToPredictor_0::NoBranch            8      0.03%      0.03% # Number of committed branches that were mispredicted by the predictor. (Count)
system.cpus0.branchPred.mispredictDueToPredictor_0::Return            0      0.00%      0.03% # Number of committed branches that were mispredicted by the predictor. (Count)
system.cpus0.branchPred.mispredictDueToPredictor_0::CallDirect            0      0.00%      0.03% # Number of committed branches that were mispredicted by the predictor. (Count)
system.cpus0.branchPred.mispredictDueToPredictor_0::CallIndirect            0      0.00%      0.03% # Number of committed branches that were mispredicted by the predictor. (Count)
system.cpus0.branchPred.mispredictDueToPredictor_0::DirectCond        28184     99.97%    100.00% # Number of committed branches that were mispredicted by the predictor. (Count)
system.cpus0.branchPred.mispredictDueToPredictor_0::DirectUncond            0      0.00%    100.00% # Number of committed branches that were mispredicted by the predictor. (Count)
system.cpus0.branchPred.mispredictDueToPredictor_0::IndirectCond            0      0.00%    100.00% # Number of committed branches that were mispredicted by the predictor. (Count)
system.cpus0.branchPred.mispredictDueToPredictor_0::IndirectUncond            0      0.00%    100.00% # Number of committed branches that were mispredicted by the predictor. (Count)
system.cpus0.branchPred.mispredictDueToPredictor_0::total        28192                       # Number of committed branches that were mispredicted by the predictor. (Count)
system.cpus0.branchPred.mispredictDueToBTBMiss_0::NoBranch            0      0.00%      0.00% # Number of committed branches that were mispredicted because of a BTB miss. (Count)
system.cpus0.branchPred.mispredictDueToBTBMiss_0::Return            0      0.00%      0.00% # Number of committed branches that were mispredicted because of a BTB miss. (Count)
system.cpus0.branchPred.mispredictDueToBTBMiss_0::CallDirect          723     20.81%     20.81% # Number of committed branches that were mispredicted because of a BTB miss. (Count)
system.cpus0.branchPred.mispredictDueToBTBMiss_0::CallIndirect           93      2.68%     23.49% # Number of committed branches that were mispredicted because of a BTB miss. (Count)
system.cpus0.branchPred.mispredictDueToBTBMiss_0::DirectCond         1656     47.67%     71.16% # Number of committed branches that were mispredicted because of a BTB miss. (Count)
system.cpus0.branchPred.mispredictDueToBTBMiss_0::DirectUncond          453     13.04%     84.20% # Number of committed branches that were mispredicted because of a BTB miss. (Count)
system.cpus0.branchPred.mispredictDueToBTBMiss_0::IndirectCond            0      0.00%     84.20% # Number of committed branches that were mispredicted because of a BTB miss. (Count)
system.cpus0.branchPred.mispredictDueToBTBMiss_0::IndirectUncond          549     15.80%    100.00% # Number of committed branches that were mispredicted because of a BTB miss. (Count)
system.cpus0.branchPred.mispredictDueToBTBMiss_0::total         3474                       # Number of committed branches that were mispredicted because of a BTB miss. (Count)
system.cpus0.branchPred.targetProvider_0::NoTarget       396076     33.14%     33.14% # The component providing the target for taken branches (Count)
system.cpus0.branchPred.targetProvider_0::BTB       758983     63.51%     96.65% # The component providing the target for taken branches (Count)
system.cpus0.branchPred.targetProvider_0::RAS        28387      2.38%     99.03% # The component providing the target for taken branches (Count)
system.cpus0.branchPred.targetProvider_0::Indirect        11642      0.97%    100.00% # The component providing the target for taken branches (Count)
system.cpus0.branchPred.targetProvider_0::total      1195088                       # The component providing the target for taken branches (Count)
system.cpus0.branchPred.targetWrong_0::NoBranch         8954     27.18%     27.18% # Number of branches where the target was incorrect or not available at prediction time. (Count)
system.cpus0.branchPred.targetWrong_0::Return        23822     72.32%     99.51% # Number of branches where the target was incorrect or not available at prediction time. (Count)
system.cpus0.branchPred.targetWrong_0::CallDirect            7      0.02%     99.53% # Number of branches where the target was incorrect or not available at prediction time. (Count)
system.cpus0.branchPred.targetWrong_0::CallIndirect          156      0.47%    100.00% # Number of branches where the target was incorrect or not available at prediction time. (Count)
system.cpus0.branchPred.targetWrong_0::DirectCond            0      0.00%    100.00% # Number of branches where the target was incorrect or not available at prediction time. (Count)
system.cpus0.branchPred.targetWrong_0::DirectUncond            0      0.00%    100.00% # Number of branches where the target was incorrect or not available at prediction time. (Count)
system.cpus0.branchPred.targetWrong_0::IndirectCond            0      0.00%    100.00% # Number of branches where the target was incorrect or not available at prediction time. (Count)
system.cpus0.branchPred.targetWrong_0::IndirectUncond            0      0.00%    100.00% # Number of branches where the target was incorrect or not available at prediction time. (Count)
system.cpus0.branchPred.targetWrong_0::total        32939                       # Number of branches where the target was incorrect or not available at prediction time. (Count)
system.cpus0.branchPred.condPredicted         1085110                       # Number of conditional branches predicted (Count)
system.cpus0.branchPred.condPredictedTaken       702163                       # Number of conditional branches predicted as taken (Count)
system.cpus0.branchPred.condIncorrect           31666                       # Number of conditional branches incorrect (Count)
system.cpus0.branchPred.predTakenBTBMiss         2798                       # Number of branches predicted taken but missed in BTB (Count)
system.cpus0.branchPred.BTBLookups            1195088                       # Number of BTB lookups (Count)
system.cpus0.branchPred.BTBUpdates               8496                       # Number of BTB updates (Count)
system.cpus0.branchPred.BTBHits                911244                       # Number of BTB hits (Count)
system.cpus0.branchPred.BTBHitRatio          0.762491                       # BTB Hit Ratio (Ratio)
system.cpus0.branchPred.BTBMispredicted          3786                       # Number BTB mispredictions. No target found or target wrong (Count)
system.cpus0.branchPred.indirectLookups         17940                       # Number of indirect predictor lookups. (Count)
system.cpus0.branchPred.indirectHits            11642                       # Number of indirect target hits. (Count)
system.cpus0.branchPred.indirectMisses           6298                       # Number of indirect misses. (Count)
system.cpus0.branchPred.indirectMispredicted            0                       # Number of mispredicted indirect branches. (Count)
system.cpus0.branchPred.btb.lookups::NoBranch          276      0.02%      0.02% # Number of BTB lookups (Count)
system.cpus0.branchPred.btb.lookups::Return        28387      2.38%      2.40% # Number of BTB lookups (Count)
system.cpus0.branchPred.btb.lookups::CallDirect        27930      2.34%      4.74% # Number of BTB lookups (Count)
system.cpus0.branchPred.btb.lookups::CallIndirect          907      0.08%      4.81% # Number of BTB lookups (Count)
system.cpus0.branchPred.btb.lookups::DirectCond      1085110     90.80%     95.61% # Number of BTB lookups (Count)
system.cpus0.branchPred.btb.lookups::DirectUncond        35445      2.97%     98.57% # Number of BTB lookups (Count)
system.cpus0.branchPred.btb.lookups::IndirectCond            0      0.00%     98.57% # Number of BTB lookups (Count)
system.cpus0.branchPred.btb.lookups::IndirectUncond        17033      1.43%    100.00% # Number of BTB lookups (Count)
system.cpus0.branchPred.btb.lookups::total      1195088                       # Number of BTB lookups (Count)
system.cpus0.branchPred.btb.misses::NoBranch           68      0.02%      0.02% # Number of BTB misses (Count)
system.cpus0.branchPred.btb.misses::Return        28387     10.00%     10.02% # Number of BTB misses (Count)
system.cpus0.branchPred.btb.misses::CallDirect         1765      0.62%     10.65% # Number of BTB misses (Count)
system.cpus0.branchPred.btb.misses::CallIndirect          907      0.32%     10.97% # Number of BTB misses (Count)
system.cpus0.branchPred.btb.misses::DirectCond       234623     82.66%     93.63% # Number of BTB misses (Count)
system.cpus0.branchPred.btb.misses::DirectUncond         1061      0.37%     94.00% # Number of BTB misses (Count)
system.cpus0.branchPred.btb.misses::IndirectCond            0      0.00%     94.00% # Number of BTB misses (Count)
system.cpus0.branchPred.btb.misses::IndirectUncond        17033      6.00%    100.00% # Number of BTB misses (Count)
system.cpus0.branchPred.btb.misses::total       283844                       # Number of BTB misses (Count)
system.cpus0.branchPred.btb.updates::NoBranch           43      0.51%      0.51% # Number of BTB updates (Count)
system.cpus0.branchPred.btb.updates::Return            0      0.00%      0.51% # Number of BTB updates (Count)
system.cpus0.branchPred.btb.updates::CallDirect         1202     14.15%     14.65% # Number of BTB updates (Count)
system.cpus0.branchPred.btb.updates::CallIndirect            0      0.00%     14.65% # Number of BTB updates (Count)
system.cpus0.branchPred.btb.updates::DirectCond         6509     76.61%     91.27% # Number of BTB updates (Count)
system.cpus0.branchPred.btb.updates::DirectUncond          742      8.73%    100.00% # Number of BTB updates (Count)
system.cpus0.branchPred.btb.updates::IndirectCond            0      0.00%    100.00% # Number of BTB updates (Count)
system.cpus0.branchPred.btb.updates::IndirectUncond            0      0.00%    100.00% # Number of BTB updates (Count)
system.cpus0.branchPred.btb.updates::total         8496                       # Number of BTB updates (Count)
system.cpus0.branchPred.btb.mispredict::NoBranch           43      0.51%      0.51% # Number of BTB mispredictions. No target found or target wrong. (Count)
system.cpus0.branchPred.btb.mispredict::Return            0      0.00%      0.51% # Number of BTB mispredictions. No target found or target wrong. (Count)
system.cpus0.branchPred.btb.mispredict::CallDirect         1202     14.15%     14.65% # Number of BTB mispredictions. No target found or target wrong. (Count)
system.cpus0.branchPred.btb.mispredict::CallIndirect            0      0.00%     14.65% # Number of BTB mispredictions. No target found or target wrong. (Count)
system.cpus0.branchPred.btb.mispredict::DirectCond         6509     76.61%     91.27% # Number of BTB mispredictions. No target found or target wrong. (Count)
system.cpus0.branchPred.btb.mispredict::DirectUncond          742      8.73%    100.00% # Number of BTB mispredictions. No target found or target wrong. (Count)
system.cpus0.branchPred.btb.mispredict::IndirectCond            0      0.00%    100.00% # Number of BTB mispredictions. No target found or target wrong. (Count)
system.cpus0.branchPred.btb.mispredict::IndirectUncond            0      0.00%    100.00% # Number of BTB mispredictions. No target found or target wrong. (Count)
system.cpus0.branchPred.btb.mispredict::total         8496                       # Number of BTB mispredictions. No target found or target wrong. (Count)
system.cpus0.branchPred.btb.power_state.pwrStateResidencyTicks::UNDEFINED   2105817250                       # Cumulative time (in ticks) in various power states (Tick)
system.cpus0.branchPred.indirectBranchPred.lookups        17940                       # Number of lookups (Count)
system.cpus0.branchPred.indirectBranchPred.hits        11642                       # Number of hits of a tag (Count)
system.cpus0.branchPred.indirectBranchPred.misses         6298                       # Number of misses (Count)
system.cpus0.branchPred.indirectBranchPred.targetRecords          808                       # Number of targets that where recorded/installed in the cache (Count)
system.cpus0.branchPred.indirectBranchPred.indirectRecords        18748                       # Number of indirect branches/calls recorded in the indirect hist (Count)
system.cpus0.branchPred.indirectBranchPred.speculativeOverflows           11                       # Number of times more than the allowed capacity for speculative branches/calls where in flight and destroy the path history (Count)
system.cpus0.branchPred.ras.pushes              35044                       # Number of times a PC was pushed onto the RAS (Count)
system.cpus0.branchPred.ras.pops                35039                       # Number of times a PC was poped from the RAS (Count)
system.cpus0.branchPred.ras.squashes            12859                       # Number of times the stack operation was squashed due to wrong speculation. (Count)
system.cpus0.branchPred.ras.used                22180                       # Number of times the RAS is the provider (Count)
system.cpus0.branchPred.ras.correct             22180                       # Number of times the RAS is the provider and the prediction is correct (Count)
system.cpus0.branchPred.ras.incorrect               0                       # Number of times the RAS is the provider and the prediction is wrong (Count)
system.cpus0.clk_domain.clock                     250                       # Clock period in ticks (Tick)
system.cpus0.clk_domain.voltage_domain.voltage            1                       # Voltage in Volts (Volt)
system.cpus0.commit.status::running           8045663     99.87%     99.87% # Number of cycles commit is running (Cycle)
system.cpus0.commit.status::idle                    1      0.00%     99.87% # Number of cycles commit is idle (Cycle)
system.cpus0.commit.status::trapPending         10850      0.13%    100.00% # Number of cycles commit is processing a trap (Cycle)
system.cpus0.commit.commitSquashedInsts       1024363                       # The number of squashed insts skipped by commit (Count)
system.cpus0.commit.commitNonSpecStalls          3508                       # The number of times commit has been forced to stall to communicate backwards (Count)
system.cpus0.commit.branchMispredicts           31295                       # The number of times a branch was mispredicted (Count)
system.cpus0.commit.numCommittedDist::samples      8023939                       # Number of insts commited each cycle (Count)
system.cpus0.commit.numCommittedDist::mean     2.812464                       # Number of insts commited each cycle (Count)
system.cpus0.commit.numCommittedDist::stdev     3.376328                       # Number of insts commited each cycle (Count)
system.cpus0.commit.numCommittedDist::underflows            0      0.00%      0.00% # Number of insts commited each cycle (Count)
system.cpus0.commit.numCommittedDist::0       3833884     47.78%     47.78% # Number of insts commited each cycle (Count)
system.cpus0.commit.numCommittedDist::1        554298      6.91%     54.69% # Number of insts commited each cycle (Count)
system.cpus0.commit.numCommittedDist::2        614489      7.66%     62.35% # Number of insts commited each cycle (Count)
system.cpus0.commit.numCommittedDist::3        222370      2.77%     65.12% # Number of insts commited each cycle (Count)
system.cpus0.commit.numCommittedDist::4        258762      3.22%     68.34% # Number of insts commited each cycle (Count)
system.cpus0.commit.numCommittedDist::5        222158      2.77%     71.11% # Number of insts commited each cycle (Count)
system.cpus0.commit.numCommittedDist::6        237723      2.96%     74.07% # Number of insts commited each cycle (Count)
system.cpus0.commit.numCommittedDist::7         97564      1.22%     75.29% # Number of insts commited each cycle (Count)
system.cpus0.commit.numCommittedDist::8       1982691     24.71%    100.00% # Number of insts commited each cycle (Count)
system.cpus0.commit.numCommittedDist::overflows            0      0.00%    100.00% # Number of insts commited each cycle (Count)
system.cpus0.commit.numCommittedDist::min_value            0                       # Number of insts commited each cycle (Count)
system.cpus0.commit.numCommittedDist::max_value            8                       # Number of insts commited each cycle (Count)
system.cpus0.commit.numCommittedDist::total      8023939                       # Number of insts commited each cycle (Count)
system.cpus0.commit.amos                            0                       # Number of atomic instructions committed (Count)
system.cpus0.commit.membars                      2316                       # Number of memory barriers committed (Count)
system.cpus0.commit.committedInstType_0::No_OpClass        51724      0.23%      0.23% # Class of committed instruction (Count)
system.cpus0.commit.committedInstType_0::IntAlu      8432904     37.37%     37.60% # Class of committed instruction (Count)
system.cpus0.commit.committedInstType_0::IntMult       118261      0.52%     38.12% # Class of committed instruction (Count)
system.cpus0.commit.committedInstType_0::IntDiv         3250      0.01%     38.14% # Class of committed instruction (Count)
system.cpus0.commit.committedInstType_0::FloatAdd       148840      0.66%     38.80% # Class of committed instruction (Count)
system.cpus0.commit.committedInstType_0::FloatCmp            0      0.00%     38.80% # Class of committed instruction (Count)
system.cpus0.commit.committedInstType_0::FloatCvt            0      0.00%     38.80% # Class of committed instruction (Count)
system.cpus0.commit.committedInstType_0::FloatMult            0      0.00%     38.80% # Class of committed instruction (Count)
system.cpus0.commit.committedInstType_0::FloatMultAcc            0      0.00%     38.80% # Class of committed instruction (Count)
system.cpus0.commit.committedInstType_0::FloatDiv            0      0.00%     38.80% # Class of committed instruction (Count)
system.cpus0.commit.committedInstType_0::FloatMisc            0      0.00%     38.80% # Class of committed instruction (Count)
system.cpus0.commit.committedInstType_0::FloatSqrt            0      0.00%     38.80% # Class of committed instruction (Count)
system.cpus0.commit.committedInstType_0::SimdAdd          298      0.00%     38.80% # Class of committed instruction (Count)
system.cpus0.commit.committedInstType_0::SimdAddAcc            0      0.00%     38.80% # Class of committed instruction (Count)
system.cpus0.commit.committedInstType_0::SimdAlu       138670      0.61%     39.41% # Class of committed instruction (Count)
system.cpus0.commit.committedInstType_0::SimdCmp           16      0.00%     39.41% # Class of committed instruction (Count)
system.cpus0.commit.committedInstType_0::SimdCvt         1422      0.01%     39.42% # Class of committed instruction (Count)
system.cpus0.commit.committedInstType_0::SimdMisc        78368      0.35%     39.76% # Class of committed instruction (Count)
system.cpus0.commit.committedInstType_0::SimdMult            0      0.00%     39.76% # Class of committed instruction (Count)
system.cpus0.commit.committedInstType_0::SimdMultAcc            0      0.00%     39.76% # Class of committed instruction (Count)
system.cpus0.commit.committedInstType_0::SimdMatMultAcc            0      0.00%     39.76% # Class of committed instruction (Count)
system.cpus0.commit.committedInstType_0::SimdShift          910      0.00%     39.77% # Class of committed instruction (Count)
system.cpus0.commit.committedInstType_0::SimdShiftAcc            0      0.00%     39.77% # Class of committed instruction (Count)
system.cpus0.commit.committedInstType_0::SimdDiv            0      0.00%     39.77% # Class of committed instruction (Count)
system.cpus0.commit.committedInstType_0::SimdSqrt            0      0.00%     39.77% # Class of committed instruction (Count)
system.cpus0.commit.committedInstType_0::SimdFloatAdd      4383093     19.42%     59.19% # Class of committed instruction (Count)
system.cpus0.commit.committedInstType_0::SimdFloatAlu            0      0.00%     59.19% # Class of committed instruction (Count)
system.cpus0.commit.committedInstType_0::SimdFloatCmp        69636      0.31%     59.50% # Class of committed instruction (Count)
system.cpus0.commit.committedInstType_0::SimdFloatCvt       105660      0.47%     59.97% # Class of committed instruction (Count)
system.cpus0.commit.committedInstType_0::SimdFloatDiv           11      0.00%     59.97% # Class of committed instruction (Count)
system.cpus0.commit.committedInstType_0::SimdFloatMisc            0      0.00%     59.97% # Class of committed instruction (Count)
system.cpus0.commit.committedInstType_0::SimdFloatMult      1153959      5.11%     65.08% # Class of committed instruction (Count)
system.cpus0.commit.committedInstType_0::SimdFloatMultAcc            0      0.00%     65.08% # Class of committed instruction (Count)
system.cpus0.commit.committedInstType_0::SimdFloatMatMultAcc            0      0.00%     65.08% # Class of committed instruction (Count)
system.cpus0.commit.committedInstType_0::SimdFloatSqrt            4      0.00%     65.08% # Class of committed instruction (Count)
system.cpus0.commit.committedInstType_0::SimdReduceAdd            0      0.00%     65.08% # Class of committed instruction (Count)
system.cpus0.commit.committedInstType_0::SimdReduceAlu            0      0.00%     65.08% # Class of committed instruction (Count)
system.cpus0.commit.committedInstType_0::SimdReduceCmp            0      0.00%     65.08% # Class of committed instruction (Count)
system.cpus0.commit.committedInstType_0::SimdFloatReduceAdd            0      0.00%     65.08% # Class of committed instruction (Count)
system.cpus0.commit.committedInstType_0::SimdFloatReduceCmp            0      0.00%     65.08% # Class of committed instruction (Count)
system.cpus0.commit.committedInstType_0::SimdAes            0      0.00%     65.08% # Class of committed instruction (Count)
system.cpus0.commit.committedInstType_0::SimdAesMix            0      0.00%     65.08% # Class of committed instruction (Count)
system.cpus0.commit.committedInstType_0::SimdSha1Hash            0      0.00%     65.08% # Class of committed instruction (Count)
system.cpus0.commit.committedInstType_0::SimdSha1Hash2            0      0.00%     65.08% # Class of committed instruction (Count)
system.cpus0.commit.committedInstType_0::SimdSha256Hash            0      0.00%     65.08% # Class of committed instruction (Count)
system.cpus0.commit.committedInstType_0::SimdSha256Hash2            0      0.00%     65.08% # Class of committed instruction (Count)
system.cpus0.commit.committedInstType_0::SimdShaSigma2            0      0.00%     65.08% # Class of committed instruction (Count)
system.cpus0.commit.committedInstType_0::SimdShaSigma3            0      0.00%     65.08% # Class of committed instruction (Count)
system.cpus0.commit.committedInstType_0::SimdSha3            0      0.00%     65.08% # Class of committed instruction (Count)
system.cpus0.commit.committedInstType_0::SimdSm4e            0      0.00%     65.08% # Class of committed instruction (Count)
system.cpus0.commit.committedInstType_0::SimdCrc            0      0.00%     65.08% # Class of committed instruction (Count)
system.cpus0.commit.committedInstType_0::SimdPredAlu            0      0.00%     65.08% # Class of committed instruction (Count)
system.cpus0.commit.committedInstType_0::SimdDotProd            0      0.00%     65.08% # Class of committed instruction (Count)
system.cpus0.commit.committedInstType_0::Matrix            0      0.00%     65.08% # Class of committed instruction (Count)
system.cpus0.commit.committedInstType_0::MatrixMov            0      0.00%     65.08% # Class of committed instruction (Count)
system.cpus0.commit.committedInstType_0::MatrixOP            0      0.00%     65.08% # Class of committed instruction (Count)
system.cpus0.commit.committedInstType_0::MemRead       719895      3.19%     68.27% # Class of committed instruction (Count)
system.cpus0.commit.committedInstType_0::MemWrite       268307      1.19%     69.46% # Class of committed instruction (Count)
system.cpus0.commit.committedInstType_0::FloatMemRead      5381928     23.85%     93.31% # Class of committed instruction (Count)
system.cpus0.commit.committedInstType_0::FloatMemWrite      1509882      6.69%    100.00% # Class of committed instruction (Count)
system.cpus0.commit.committedInstType_0::InstPrefetch            0      0.00%    100.00% # Class of committed instruction (Count)
system.cpus0.commit.committedInstType_0::SimdUnitStrideLoad            0      0.00%    100.00% # Class of committed instruction (Count)
system.cpus0.commit.committedInstType_0::SimdUnitStrideStore            0      0.00%    100.00% # Class of committed instruction (Count)
system.cpus0.commit.committedInstType_0::SimdUnitStrideMaskLoad            0      0.00%    100.00% # Class of committed instruction (Count)
system.cpus0.commit.committedInstType_0::SimdUnitStrideMaskStore            0      0.00%    100.00% # Class of committed instruction (Count)
system.cpus0.commit.committedInstType_0::SimdStridedLoad            0      0.00%    100.00% # Class of committed instruction (Count)
system.cpus0.commit.committedInstType_0::SimdStridedStore            0      0.00%    100.00% # Class of committed instruction (Count)
system.cpus0.commit.committedInstType_0::SimdIndexedLoad            0      0.00%    100.00% # Class of committed instruction (Count)
system.cpus0.commit.committedInstType_0::SimdIndexedStore            0      0.00%    100.00% # Class of committed instruction (Count)
system.cpus0.commit.committedInstType_0::SimdWholeRegisterLoad            0      0.00%    100.00% # Class of committed instruction (Count)
system.cpus0.commit.committedInstType_0::SimdWholeRegisterStore            0      0.00%    100.00% # Class of committed instruction (Count)
system.cpus0.commit.committedInstType_0::SimdUnitStrideFaultOnlyFirstLoad            0      0.00%    100.00% # Class of committed instruction (Count)
system.cpus0.commit.committedInstType_0::SimdUnitStrideSegmentedLoad            0      0.00%    100.00% # Class of committed instruction (Count)
system.cpus0.commit.committedInstType_0::SimdUnitStrideSegmentedStore            0      0.00%    100.00% # Class of committed instruction (Count)
system.cpus0.commit.committedInstType_0::SimdUnitStrideSegmentedFaultOnlyFirstLoad            0      0.00%    100.00% # Class of committed instruction (Count)
system.cpus0.commit.committedInstType_0::SimdStrideSegmentedLoad            0      0.00%    100.00% # Class of committed instruction (Count)
system.cpus0.commit.committedInstType_0::SimdStrideSegmentedStore            0      0.00%    100.00% # Class of committed instruction (Count)
system.cpus0.commit.committedInstType_0::SimdExt            0      0.00%    100.00% # Class of committed instruction (Count)
[...]
system.membus.pktCount_system.cpus01.l2cache.mem_side_port::system.mem_ctrl0.port            4                       # Packet count per connected requestor and responder (Count)
system.membus.pktCount_system.cpus01.l2cache.mem_side_port::total            4                       # Packet count per connected requestor and responder (Count)
system.membus.pktCount_system.cpus02.l2cache.mem_side_port::system.mem_ctrl0.port            4                       # Packet count per connected requestor and responder (Count)
system.membus.pktCount_system.cpus02.l2cache.mem_side_port::total            4                       # Packet count per connected requestor and responder (Count)
system.membus.pktCount_system.cpus03.l2cache.mem_side_port::system.mem_ctrl0.port            4                       # Packet count per connected requestor and responder (Count)
system.membus.pktCount_system.cpus03.l2cache.mem_side_port::total            4                       # Packet count per connected requestor and responder (Count)
system.membus.pktCount_system.cpus04.l2cache.mem_side_port::system.mem_ctrl0.port            4                       # Packet count per connected requestor and responder (Count)
system.membus.pktCount_system.cpus04.l2cache.mem_side_port::total            4                       # Packet count per connected requestor and responder (Count)
system.membus.pktCount_system.cpus05.l2cache.mem_side_port::system.mem_ctrl0.port            4                       # Packet count per connected requestor and responder (Count)
system.membus.pktCount_system.cpus05.l2cache.mem_side_port::total            4                       # Packet count per connected requestor and responder (Count)
system.membus.pktCount_system.cpus06.l2cache.mem_side_port::system.mem_ctrl0.port            4                       # Packet count per connected requestor and responder (Count)
system.membus.pktCount_system.cpus06.l2cache.mem_side_port::total            4                       # Packet count per connected requestor and responder (Count)
system.membus.pktCount_system.cpus07.l2cache.mem_side_port::system.mem_ctrl0.port            4                       # Packet count per connected requestor and responder (Count)
system.membus.pktCount_system.cpus07.l2cache.mem_side_port::total            4                       # Packet count per connected requestor and responder (Count)
system.membus.pktCount_system.cpus08.l2cache.mem_side_port::system.mem_ctrl0.port        12953                       # Packet count per connected requestor and responder (Count)
system.membus.pktCount_system.cpus08.l2cache.mem_side_port::system.mem_ctrl1.port        23387                       # Packet count per connected requestor and responder (Count)
system.membus.pktCount_system.cpus08.l2cache.mem_side_port::total        36340                       # Packet count per connected requestor and responder (Count)
system.membus.pktCount_system.cpus09.l2cache.mem_side_port::system.mem_ctrl0.port            4                       # Packet count per connected requestor and responder (Count)
system.membus.pktCount_system.cpus09.l2cache.mem_side_port::total            4                       # Packet count per connected requestor and responder (Count)
system.membus.pktCount_system.cpus10.l2cache.mem_side_port::system.mem_ctrl0.port            4                       # Packet count per connected requestor and responder (Count)
system.membus.pktCount_system.cpus10.l2cache.mem_side_port::total            4                       # Packet count per connected requestor and responder (Count)
system.membus.pktCount_system.cpus11.l2cache.mem_side_port::system.mem_ctrl0.port            4                       # Packet count per connected requestor and responder (Count)
system.membus.pktCount_system.cpus11.l2cache.mem_side_port::total            4                       # Packet count per connected requestor and responder (Count)
system.membus.pktCount_system.cpus12.l2cache.mem_side_port::system.mem_ctrl0.port            4                       # Packet count per connected requestor and responder (Count)
system.membus.pktCount_system.cpus12.l2cache.mem_side_port::total            4                       # Packet count per connected requestor and responder (Count)
system.membus.pktCount_system.cpus13.l2cache.mem_side_port::system.mem_ctrl0.port            4                       # Packet count per connected requestor and responder (Count)
system.membus.pktCount_system.cpus13.l2cache.mem_side_port::total            4                       # Packet count per connected requestor and responder (Count)
system.membus.pktCount_system.cpus14.l2cache.mem_side_port::system.mem_ctrl0.port            4                       # Packet count per connected requestor and responder (Count)
system.membus.pktCount_system.cpus14.l2cache.mem_side_port::total            4                       # Packet count per connected requestor and responder (Count)
system.membus.pktCount_system.cpus15.l2cache.mem_side_port::system.mem_ctrl0.port            4                       # Packet count per connected requestor and responder (Count)
system.membus.pktCount_system.cpus15.l2cache.mem_side_port::total            4                       # Packet count per connected requestor and responder (Count)
system.membus.pktCount::total                   83166                       # Packet count per connected requestor and responder (Count)
system.membus.pktSize_system.cpus00.l2cache.mem_side_port::system.mem_ctrl0.port       891392                       # Cumulative packet size per connected requestor and responder (Byte)
system.membus.pktSize_system.cpus00.l2cache.mem_side_port::system.mem_ctrl1.port         4736                       # Cumulative packet size per connected requestor and responder (Byte)
system.membus.pktSize_system.cpus00.l2cache.mem_side_port::total       896128                       # Cumulative packet size per connected requestor and responder (Byte)
system.membus.pktSize_system.cpus01.l2cache.mem_side_port::system.mem_ctrl0.port          128                       # Cumulative packet size per connected requestor and responder (Byte)
system.membus.pktSize_system.cpus01.l2cache.mem_side_port::total          128                       # Cumulative packet size per connected requestor and responder (Byte)
system.membus.pktSize_system.cpus02.l2cache.mem_side_port::system.mem_ctrl0.port          128                       # Cumulative packet size per connected requestor and responder (Byte)
system.membus.pktSize_system.cpus02.l2cache.mem_side_port::total          128                       # Cumulative packet size per connected requestor and responder (Byte)
system.membus.pktSize_system.cpus03.l2cache.mem_side_port::system.mem_ctrl0.port          128                       # Cumulative packet size per connected requestor and responder (Byte)
system.membus.pktSize_system.cpus03.l2cache.mem_side_port::total          128                       # Cumulative packet size per connected requestor and responder (Byte)
system.membus.pktSize_system.cpus04.l2cache.mem_side_port::system.mem_ctrl0.port          128                       # Cumulative packet size per connected requestor and responder (Byte)
system.membus.pktSize_system.cpus04.l2cache.mem_side_port::total          128                       # Cumulative packet size per connected requestor and responder (Byte)
system.membus.pktSize_system.cpus05.l2cache.mem_side_port::system.mem_ctrl0.port          128                       # Cumulative packet size per connected requestor and responder (Byte)
system.membus.pktSize_system.cpus05.l2cache.mem_side_port::total          128                       # Cumulative packet size per connected requestor and responder (Byte)
system.membus.pktSize_system.cpus06.l2cache.mem_side_port::system.mem_ctrl0.port          128                       # Cumulative packet size per connected requestor and responder (Byte)
system.membus.pktSize_system.cpus06.l2cache.mem_side_port::total          128                       # Cumulative packet size per connected requestor and responder (Byte)
system.membus.pktSize_system.cpus07.l2cache.mem_side_port::system.mem_ctrl0.port          128                       # Cumulative packet size per connected requestor and responder (Byte)
system.membus.pktSize_system.cpus07.l2cache.mem_side_port::total          128                       # Cumulative packet size per connected requestor and responder (Byte)
system.membus.pktSize_system.cpus08.l2cache.mem_side_port::system.mem_ctrl0.port        26816                       # Cumulative packet size per connected requestor and responder (Byte)
system.membus.pktSize_system.cpus08.l2cache.mem_side_port::system.mem_ctrl1.port       531008                       # Cumulative packet size per connected requestor and responder (Byte)
system.membus.pktSize_system.cpus08.l2cache.mem_side_port::total       557824                       # Cumulative packet size per connected requestor and responder (Byte)
system.membus.pktSize_system.cpus09.l2cache.mem_side_port::system.mem_ctrl0.port          128                       # Cumulative packet size per connected requestor and responder (Byte)
system.membus.pktSize_system.cpus09.l2cache.mem_side_port::total          128                       # Cumulative packet size per connected requestor and responder (Byte)
system.membus.pktSize_system.cpus10.l2cache.mem_side_port::system.mem_ctrl0.port          128                       # Cumulative packet size per connected requestor and responder (Byte)
system.membus.pktSize_system.cpus10.l2cache.mem_side_port::total          128                       # Cumulative packet size per connected requestor and responder (Byte)
system.membus.pktSize_system.cpus11.l2cache.mem_side_port::system.mem_ctrl0.port          128                       # Cumulative packet size per connected requestor and responder (Byte)
system.membus.pktSize_system.cpus11.l2cache.mem_side_port::total          128                       # Cumulative packet size per connected requestor and responder (Byte)
system.membus.pktSize_system.cpus12.l2cache.mem_side_port::system.mem_ctrl0.port          128                       # Cumulative packet size per connected requestor and responder (Byte)
system.membus.pktSize_system.cpus12.l2cache.mem_side_port::total          128                       # Cumulative packet size per connected requestor and responder (Byte)
system.membus.pktSize_system.cpus13.l2cache.mem_side_port::system.mem_ctrl0.port          128                       # Cumulative packet size per connected requestor and responder (Byte)
system.membus.pktSize_system.cpus13.l2cache.mem_side_port::total          128                       # Cumulative packet size per connected requestor and responder (Byte)
system.membus.pktSize_system.cpus14.l2cache.mem_side_port::system.mem_ctrl0.port          128                       # Cumulative packet size per connected requestor and responder (Byte)
system.membus.pktSize_system.cpus14.l2cache.mem_side_port::total          128                       # Cumulative packet size per connected requestor and responder (Byte)
system.membus.pktSize_system.cpus15.l2cache.mem_side_port::system.mem_ctrl0.port          128                       # Cumulative packet size per connected requestor and responder (Byte)
system.membus.pktSize_system.cpus15.l2cache.mem_side_port::total          128                       # Cumulative packet size per connected requestor and responder (Byte)
system.membus.pktSize::total                  1455744                       # Cumulative packet size per connected requestor and responder (Byte)
system.membus.snoops                            25990                       # Total snoops (Count)
system.membus.snoopTraffic                    1405248                       # Total snoop traffic (Byte)
system.membus.snoopFanout::samples              60420                       # Request fanout histogram (Count)
system.membus.snoopFanout::mean              0.629758                       # Request fanout histogram (Count)
system.membus.snoopFanout::stdev             0.482873                       # Request fanout histogram (Count)
system.membus.snoopFanout::underflows               0      0.00%      0.00% # Request fanout histogram (Count)
system.membus.snoopFanout::0                    22370     37.02%     37.02% # Request fanout histogram (Count)
system.membus.snoopFanout::1                    38050     62.98%    100.00% # Request fanout histogram (Count)
system.membus.snoopFanout::2                        0      0.00%    100.00% # Request fanout histogram (Count)
system.membus.snoopFanout::3                        0      0.00%    100.00% # Request fanout histogram (Count)
system.membus.snoopFanout::4                        0      0.00%    100.00% # Request fanout histogram (Count)
system.membus.snoopFanout::5                        0      0.00%    100.00% # Request fanout histogram (Count)
system.membus.snoopFanout::6                        0      0.00%    100.00% # Request fanout histogram (Count)
system.membus.snoopFanout::7                        0      0.00%    100.00% # Request fanout histogram (Count)
system.membus.snoopFanout::8                        0      0.00%    100.00% # Request fanout histogram (Count)
system.membus.snoopFanout::9                        0      0.00%    100.00% # Request fanout histogram (Count)
system.membus.snoopFanout::10                       0      0.00%    100.00% # Request fanout histogram (Count)
system.membus.snoopFanout::11                       0      0.00%    100.00% # Request fanout histogram (Count)
system.membus.snoopFanout::12                       0      0.00%    100.00% # Request fanout histogram (Count)
system.membus.snoopFanout::13                       0      0.00%    100.00% # Request fanout histogram (Count)
system.membus.snoopFanout::14                       0      0.00%    100.00% # Request fanout histogram (Count)
system.membus.snoopFanout::15                       0      0.00%    100.00% # Request fanout histogram (Count)
system.membus.snoopFanout::16                       0      0.00%    100.00% # Request fanout histogram (Count)
system.membus.snoopFanout::overflows                0      0.00%    100.00% # Request fanout histogram (Count)
system.membus.snoopFanout::min_value                0                       # Request fanout histogram (Count)
system.membus.snoopFanout::max_value                1                       # Request fanout histogram (Count)
system.membus.snoopFanout::total                60420                       # Request fanout histogram (Count)
system.membus.power_state.pwrStateResidencyTicks::UNDEFINED   2105817250                       # Cumulative time (in ticks) in various power states (Tick)
system.membus.reqLayer32.occupancy           55146535                       # Layer occupancy (ticks) (Tick)
system.membus.reqLayer32.utilization              0.0                       # Layer utilization (Ratio)
system.membus.reqLayer33.occupancy           34583745                       # Layer occupancy (ticks) (Tick)
system.membus.reqLayer33.utilization              0.0                       # Layer utilization (Ratio)
system.membus.respLayer1.occupancy          133047261                       # Layer occupancy (ticks) (Tick)
system.membus.respLayer1.utilization              0.1                       # Layer utilization (Ratio)
system.membus.respLayer13.occupancy             10500                       # Layer occupancy (ticks) (Tick)
system.membus.respLayer13.utilization             0.0                       # Layer utilization (Ratio)
system.membus.respLayer17.occupancy             10250                       # Layer occupancy (ticks) (Tick)
system.membus.respLayer17.utilization             0.0                       # Layer utilization (Ratio)
system.membus.respLayer21.occupancy             11250                       # Layer occupancy (ticks) (Tick)
system.membus.respLayer21.utilization             0.0                       # Layer utilization (Ratio)
system.membus.respLayer25.occupancy             11000                       # Layer occupancy (ticks) (Tick)
system.membus.respLayer25.utilization             0.0                       # Layer utilization (Ratio)
system.membus.respLayer29.occupancy             11000                       # Layer occupancy (ticks) (Tick)
system.membus.respLayer29.utilization             0.0                       # Layer utilization (Ratio)
system.membus.respLayer33.occupancy         110978000                       # Layer occupancy (ticks) (Tick)
system.membus.respLayer33.utilization             0.1                       # Layer utilization (Ratio)
system.membus.respLayer37.occupancy             11000                       # Layer occupancy (ticks) (Tick)
system.membus.respLayer37.utilization             0.0                       # Layer utilization (Ratio)
system.membus.respLayer41.occupancy             11000                       # Layer occupancy (ticks) (Tick)
system.membus.respLayer41.utilization             0.0                       # Layer utilization (Ratio)
system.membus.respLayer45.occupancy             10750                       # Layer occupancy (ticks) (Tick)
system.membus.respLayer45.utilization             0.0                       # Layer utilization (Ratio)
system.membus.respLayer49.occupancy             10750                       # Layer occupancy (ticks) (Tick)
system.membus.respLayer49.utilization             0.0                       # Layer utilization (Ratio)
system.membus.respLayer5.occupancy              10750                       # Layer occupancy (ticks) (Tick)
system.membus.respLayer5.utilization              0.0                       # Layer utilization (Ratio)
system.membus.respLayer53.occupancy             10750                       # Layer occupancy (ticks) (Tick)
system.membus.respLayer53.utilization             0.0                       # Layer utilization (Ratio)
system.membus.respLayer57.occupancy             10500                       # Layer occupancy (ticks) (Tick)
system.membus.respLayer57.utilization             0.0                       # Layer utilization (Ratio)
system.membus.respLayer61.occupancy             10500                       # Layer occupancy (ticks) (Tick)
system.membus.respLayer61.utilization             0.0                       # Layer utilization (Ratio)
system.membus.respLayer9.occupancy              10500                       # Layer occupancy (ticks) (Tick)
system.membus.respLayer9.utilization              0.0                       # Layer utilization (Ratio)
system.membus.snoop_filter.totRequests          60420                       # Total number of requests made to the snoop filter. (Count)
system.membus.snoop_filter.hitSingleRequests        11225                       # Number of requests hitting in the snoop filter with a single holder of the requested data. (Count)
system.membus.snoop_filter.hitMultiRequests        26825                       # Number of requests hitting in the snoop filter with multiple (>1) holders of the requested data. (Count)
system.membus.snoop_filter.totSnoops                0                       # Total number of snoops made to the snoop filter. (Count)
system.membus.snoop_filter.hitSingleSnoops            0                       # Number of snoops hitting in the snoop filter with a single holder of the requested data. (Count)
system.membus.snoop_filter.hitMultiSnoops            0                       # Number of snoops hitting in the snoop filter with multiple (>1) holders of the requested data. (Count)
system.workload.inst.arm                            0                       # number of arm instructions executed (Count)
system.workload.inst.quiesce                        0                       # number of quiesce instructions executed (Count)

---------- End Simulation Statistics   ----------
